<?xml version="1.0" encoding="UTF-8"?>

<!-- generated on 2025-11-30 06:55:49.129335 by Eclipse SUMO randomTrips.py UNKNOWN
<configuration>
    <net-file value="/app/scenarios/simulacao.net.xml"/>
    <route-file value="/app/scenarios/simulacao.rou.xml"/>
    <end value="1000.0"/>
    <period value="5.0"/>
</configuration>
-->

<!-- generated on 2025-11-30T06:55:48.428199+00:00 by Eclipse SUMO duarouter 1.25.0
<duarouterConfiguration xmlns:xsi="http://www.w3.org/2001/XMLSchema-instance" xsi:noNamespaceSchemaLocation="http://sumo.dlr.de/xsd/duarouterConfiguration.xsd">

    <input>
        <net-file value="/app/scenarios/simulacao.net.xml"/>
        <route-files value="trips.trips.xml"/>
    </input>

    <output>
        <output-file value="/app/scenarios/simulacao.rou.xml"/>
        <alternatives-output value="NUL"/>
    </output>

    <time>
        <begin value="0"/>
        <end value="1000.0"/>
    </time>

    <report>
        <no-warnings value="true"/>
        <ignore-errors value="true"/>
        <no-step-log value="true"/>
    </report>

</duarouterConfiguration>
-->

<routes xmlns:xsi="http://www.w3.org/2001/XMLSchema-instance" xsi:noNamespaceSchemaLocation="http://sumo.dlr.de/xsd/routes_file.xsd">
    <vehicle id="0" depart="0.00">
        <route edges="173075641 520931498#0 520931498#1 -173075896#2 -173075896#1 -173075896#0 -173075652#14 -173075652#13 -173075652#12 -173075652#11 -173075652#10 -173075652#9 -173075652#8 -173075652#7 -173075652#6 -173075652#5 -173075652#4 -173075652#3 -173075652#2 -173075652#1 -173075652#0 173070106#0 173070106#1 173070106#2 173070106#3 -534701555 -185566944#3 -185566944#2 -185566944#1 -185566944#0 -173070103#1 -173070103#0 -185536389#4 -185536389#3 -185536389#2 -185536389#1 -185536389#0 -173070262#4 -173070262#3 -173070262#2 -520927611#1 -520927611#0 -185303832#2 -185303832#1 -185303832#0 -173070171#0 -173070105#5"/>
    </vehicle>
    <vehicle id="1" depart="5.00">
        <route edges="-173206858#0 870330819#2 870330819#3 870330819#4 547231173 -164107681#2 -164107681#1 -164107681#0 -836738797 -164107654#0 1417036038 1184412921 1356731502 164107625#1 164107625#2 164107625#3 164107625#4 164107625#5 173070226#0 173070226#1 173070226#2 445221164 -100070111#4 -100070111#3 -100070111#2 -100070111#1 -100070111#0 -332465801#33 -332465801#32 -332465801#31 -332465801#30 -332465801#29 -332465801#28 -332465801#27 173070108#0 -173070139 173070264#2 173070264#3 -546102321#2 -546102321#1 -546102321#0 -520723613#2 -520723613#1 -520723613#0 179366673 520721275#3 520723607#0 649253776 520723609#0 520723609#1 520723609#2 -829394751 520723608 -173082176#9 -173082176#8 -173082176#7 -173082176#6 -173082176#5"/>
    </vehicle>
    <vehicle id="2" depart="10.00">
        <route edges="173082284#2 -173082284#2 -173082284#1 -173082284#0 173082279#3 -546120060 185218780#2 -520721277#2 -520721277#1 -520721277#0 520723607#2 520721276#1 520721276#2 520721275#0 520721275#1 520721275#2 520721275#3 173070219#0 173070219#1 173070219#2 -967822584 173070146#1 173070146#2 173070269#5 173070269#6 173070269#7 -332465801#9 -332465801#8 -332465801#7 -332465801#6 -332465801#5 173075786#0 173075786#1 173075563#0 173075563#1 173075563#2 173075563#3 173075563#4 173075850#0"/>
    </vehicle>
    <vehicle id="3" depart="15.00">
        <route edges="471543034#5 471543040 -471543040 -471543022 -164107681#2 -164107681#1 -164107681#0 -836738797 -164107654#0 1417036038 1214281466#1 1214281466#2 1214281465 1417036037 1032064077#0 1032064077#1 1032064077#2 1032064077#3 1032064077#4 1032064077#5 838530635#0 838530635#1 838530635#2 -520927620 173070248#0 173070248#1 173070248#2 173070248#3 173070240#2 -173070236#2"/>
    </vehicle>
    <vehicle id="4" depart="20.00">
        <route edges="-775443740#0 775443740#0 775443740#1 775443740#2 775443740#3 775443740#4 -173075785#3 -173075785#2 -173075785#1 -173075785#0 173075809#5 173075809#6 173070093#0 173070093#1 173070093#2 -173075837#1 -173075837#0 -937459263 173070154 -534701555 -185566944#3 -185566944#2 -185566944#1 -185566944#0 -173070103#1 -173070103#0 185536389#5 185536389#6 185536389#7 185536389#8 185536389#9 185536389#10 185536389#11 185536389#12 185536389#13 185536389#14 185536389#15 185536389#16 185536389#17 185536389#18 185536389#19 185536389#20 185536389#21 185536389#22 185536389#23 173070264#0 173070264#1 173070264#2 173070264#3 -546102321#2 -173070108#3"/>
    </vehicle>
    <vehicle id="5" depart="25.00">
        <route edges="-173076989 -444985902#0 173070287#0 173070287#1 173070102 -650308789 -173070094#4 -578258725#3 -578258725#2 -578258725#1 -578258725#0 578258726#0 -173070281#3 -173070281#2 -173070140 173070140"/>
    </vehicle>
    <vehicle id="6" depart="30.00">
        <route edges="-173070107#0 520721274#0 -520721274#0 173070107#0 173070107#1 173070107#2 173070107#3 173070107#4 -332465801#14 173075536#0 173075536#1 173075536#2 173075536#3 173075536#4 173075713#0 -173075851#2 -173075851#1"/>
    </vehicle>
    <vehicle id="7" depart="35.00">
        <route edges="173075652#5 173075652#6 173075652#7 173075652#8 173075652#9 173075652#10 173075652#11 173075652#12 173075652#13 173075652#14 173075896#0 173075896#1 173075896#2 173075896#3 173075896#4 -173075563#6 -173075563#5 -173075563#4 -173075563#3 -173075563#2 -173075563#1 -173075563#0 -173075786#1 -173075786#0 332465801#5 332465801#6 332465801#7 332465801#8 332465801#9 -173070269#7 -173070269#6 -173070269#5 -173070269#4 -173070269#3 -173070269#2 173070186#0 173070186#1 173070186#2 173070219#1"/>
    </vehicle>
    <vehicle id="8" depart="40.00">
        <route edges="-173077003#4 -173077002#1 -173077002#0 -444985902#8 -444985902#7 402729011 173075809#2 173075809#3 173075809#4 173075809#5 173075809#6 173070093#0 173070093#1 173070093#2 -173075837#1 -173075837#0 -937459263 173070154 -534701555 -185566944#3 -185566944#2 -185566944#1 -185566944#0 -173070103#1 -173070103#0 185536389#5 -173070271#4 -173070271#3 -173070271#2 173070271#2"/>
    </vehicle>
    <vehicle id="9" depart="45.00">
        <route edges="185536389#18 185536389#19 185536389#20 185536389#21 185536389#22 185536389#23 173070264#0 173070264#1 173070264#2 173070264#3 -546102321#2 -173070108#3 -173070108#2 173070165#0 173070165#1 184496038 1173604229#1 -1173604229#1"/>
    </vehicle>
    <vehicle id="10" depart="50.00">
        <route edges="185536389#0 185536389#1 185536389#2 185536389#3 185536389#4 173070103#0 173070103#1 185566944#0 185566944#1 185566944#2 185566944#3 534701555 -173070154 937459263 173075837#0 173070104#9 173070104#10 1162904806 944030689#3 -173075809#6 -173075809#5 -173075809#4 -173075809#3 -173075809#2 -173075809#1 -173075809#0 -444985902#4 -444985902#3 -444985902#2 -173077003#8 173077003#8"/>
    </vehicle>
    <vehicle id="11" depart="55.00">
        <route edges="-332465801#24 -332465801#23 -185536389#23 -185536389#22 -185536389#21 -185536389#20 -185536389#19 -185536389#18 -185536389#17 -185536389#16 -185536389#15 -185536389#14 -185536389#13 -185536389#12 -185536389#11 -185536389#10 -185536389#9 -185536389#8 -185536389#7 -185536389#6 -185536389#5 173070103#0 173070103#1 185566944#0 185566944#1 185566944#2 185566944#3 534701555 -173070154 937459263 173075837#0 173075837#1 173070093#3 173075797#1 173075797#2 173075797#3 173075797#4 -173075653#6 173075620 -173075650#7 173075609 -173075609"/>
    </vehicle>
    <vehicle id="12" depart="60.00">
        <route edges="599505132#1 173082275#0 173082275#1 173082275#2 173082275#3 173082275#4 173082275#5 173082275#6 173082267#0 185218780#0 185218780#1 185218780#2 -520721277#2 -520721277#1 -520721277#0 520723607#2 520721276#1 520721276#2 520721275#0 520721275#1 520723612 520723613#0 520723613#1 520723613#2 546102321#0 546102321#1 546102321#2 -173070264#3 -173070264#2 -173070264#1 -173070264#0 -332465801#22 -332465801#21 -332465801#20 -332465801#19"/>
    </vehicle>
    <vehicle id="13" depart="65.00">
        <route edges="-173070243 445221161#0 445221161#1 445221161#2 445221161#3 173070253#1 184233296#0 184233296#1 445221162#0 445221162#1 474424118 445255310#1 445221158#0 445221158#1 184233293#0 184233293#1 1032064077#0 1032064077#1 1032064077#2 1032064077#3 1032064077#4 1032064077#5 838530635#0 838530635#1 838530635#2 -520927620 173070248#0 173070248#1 173070248#2 -173070248#2"/>
    </vehicle>
    <vehicle id="14" depart="70.00">
        <route edges="440238593#0 440238593#1 440238593#2 440238593#3 440238593#4 -173075857#2 -173075857#1 -173075857#0 173075568#0 173075568#1 173075568#2 173075568#3 173075568#4 173075568#5 173075568#6 402731354 -173075715#1 -173075715#0 -173075549#7 -173075549#6 -173075549#5 -173075549#4 -173075549#3 -173075549#2 -173075549#1 -173075549#0 -173075652#14 -173075652#13 -173075652#12 -173075652#11 173075873#0 173075873#1 -967810331#0 -173075713#2 -173075713#1 -173075713#0 -173075536#4 -173075536#3 -173075536#2 173075536#2"/>
    </vehicle>
    <vehicle id="15" depart="75.00">
        <route edges="185536389#11 185536389#12 185536389#13 185536389#14 185536389#15 185536389#16 185536389#17 185536389#18 185536389#19 185536389#20 185536389#21 185536389#22 185536389#23 173070264#0 173070264#1 173070264#2 173070264#3 -546102321#2 -546102321#1 -546102321#0 -520723613#2 -520723613#1 -520723613#0 179366673 520721275#3 520723607#0 520723607#1 520721277#0 520721277#1 520721277#2 -185218780#2 546120060 -546120059#1 -546120059#0 -546230123#2 -546230123#1 173082275#5"/>
    </vehicle>
    <vehicle id="16" depart="80.00">
        <route edges="173070194 -173070178#1 -173070178#0 -185536389#8 -185536389#7 -185536389#6 -173070271#4 -173070271#3 -173070271#2 -173070271#1 -173070271#0 -991705195#0 -173070233#2 -173070233#1 -173070233#0 173070202#3 -173070113 173070105#2 -173070221#4 -173070221#3 -173070221#2 -173070221#1 -173070221#0 444987070#3 444987070#4 444987070#5 444987070#6 444987070#7 444987070#8 444987070#9 444987070#10 444987070#11 444987070#12 444987070#13 444987070#14 164107622 164107654#0 164107654#1 164107681#0 164107681#1 471543036#0 471543036#1 471543036#2 471543037 -964177019#1 -964177019#0 471543028#0 964177021 870318696"/>
    </vehicle>
    <vehicle id="17" depart="85.00">
        <route edges="-520721277#4 -520721277#3 -520721277#2 -520721277#1 -520721277#0 520723607#2 520721276#1 520721276#2 520721275#0 520721275#1 520723612 520723613#0 520723613#1 520723613#2 546102321#0 546102321#1 546102321#2 -173070264#3 -173070264#2 173070139 -173070108#0 332465801#27 332465801#28 332465801#29 332465801#30 332465801#31 332465801#32 332465801#33 100070111#0 100070111#1 100070111#2 100070111#3 100070111#4 404960187 173070226#4 173070226#5 173070226#6"/>
    </vehicle>
    <vehicle id="18" depart="90.00">
        <route edges="313156229 -520721277#6 -520721277#5 -520721277#4 -520721277#3 -520721277#2 -520721277#1 -520721277#0 520723607#2 520721276#1 520721276#2 520721275#0 520721275#1 520721275#2 520721275#3 173070219#0 173070219#1 173070219#2 -967822584 173070146#1 173070146#2 173070269#5 173070269#6 173070269#7 -332465801#9 -332465801#8 -332465801#7 -332465801#6 -332465801#5 173075786#0 173075786#1 173075563#0 173075563#1 173075563#2 173075563#3 173075563#4 173075563#5 173075563#6"/>
    </vehicle>
    <vehicle id="19" depart="95.00">
        <route edges="444987070#16 444987070#17 444987070#18 1356731503 164107625#0 164107625#1 164107625#2 164107625#3 164107625#4 164107625#5 173070226#0 173070226#1 173070226#2 445221164 -100070111#4 -100070111#3 -100070111#2 -100070111#1 -100070111#0 -332465801#33 -332465801#32 -332465801#31 -332465801#30 -332465801#29 -332465801#28 -332465801#27 -332465801#26 -332465801#25 -332465801#24 -332465801#23 -185536389#23 -185536389#22 -185536389#21 -185536389#20 -185536389#19 -185536389#18 -185536389#17 -185536389#16 -185536389#15 -185536389#14 173070260#0"/>
    </vehicle>
    <vehicle id="20" depart="100.00">
        <route edges="173082162#4 173082162#5 173082162#6 173869313 445251189#3 445251189#4 445251189#5 445251189#6 173070122 479293767 -520721274#4 -520721274#3 173070142 -173070108#2 173070165#0 173070165#1 -173070165#1"/>
    </vehicle>
    <vehicle id="21" depart="105.00">
        <route edges="-173082176#6 -173082176#5 -173082176#4 -173082176#3 -173082165 173082299#2 173082299#3 520721255 -520721277#5 -520721277#4 -546125775#2 -546125775#1 -173082267#2 -173082267#1 -173082267#0 -173082279#1 -173082275#5 -173082275#4 -173082275#3 -173082275#2 -173082275#1 -173082275#0 -599505132#1 -599505132#0 173869737#0 173869737#1 173869737#2 173869737#3 173869737#4 -184496049#8 -184496049#7 -184496049#6 -184496049#5 -184496049#4 -184496048#2"/>
    </vehicle>
    <vehicle id="22" depart="110.00">
        <route edges="-173070224#1 -173070224#0 173070183#1 520927612#4 185536389#0 185536389#1 185536389#2 185536389#3 185536389#4 185536389#5 185536389#6 185536389#7 185536389#8 185536389#9 185536389#10 185536389#11 185536389#12 185536389#13 185536389#14 185536389#15 185536389#16 185536389#17 185536389#18 185536389#19 185536389#20 185536389#21 185536389#22 185536389#23 173070264#0 173070264#1 173070264#2 173070264#3 -546102321#2 -546102321#1 -546102321#0 -520723613#2 -520723613#1 -520723613#0 179366673 520721275#3 520723607#0 520723607#1 520721277#0 520721277#1 520721277#2 -185218780#2 546120060 -173082279#3 173082284#0 173082284#1 173082284#2 -173082218#0"/>
    </vehicle>
    <vehicle id="23" depart="115.00">
        <route edges="-173070255#1 -173070255#0 546102321#1 -173070108#3 -173070142 520721274#3 520721274#4 -479293767 445255300 -445251189#7 -445251189#6 -445251189#5 -445251189#4 445255304 -173082162#6 -173082162#5 -173082162#4 -173082162#3 -173082162#2 -184233297#2"/>
    </vehicle>
    <vehicle id="24" depart="120.00">
        <route edges="173075584 -173075785#1 -173075785#0 173075809#5 173075809#6 173070093#0 173070093#1 173070093#2 -173075837#1 -173075837#0 -937459263 173070154 -534701555 -185566944#3 -185566944#2 -185566944#1 -185566944#0 -173070103#1 -173070103#0 185536389#5 185536389#6 185536389#7 185536389#8 185536389#9 185536389#10 185536389#11 185536389#12 185536389#13 185536389#14 185536389#15 185536389#16 185536389#17 185536389#18 185536389#19 185536389#20 185536389#21 185536389#22 185536389#23 173070264#0 173070264#1 173070264#2 173070264#3 -546102321#2 -173070108#3 -173070142 520721274#3 520721274#4 -479293767"/>
    </vehicle>
    <vehicle id="25" depart="125.00">
        <route edges="-173206773#0 -837051045#1 -837051045#0 837051045#0 837051045#1 173206773#0 173206773#1 173206773#2 173206773#3 173206773#4 -173206858#2 -173206858#1 -173206858#0 870330819#2 870330819#3 870330819#4 547231173 -164107681#2 -164107681#1 -164107681#0 -836738797 -164107654#0 1417036038 1184412921 1417036030 1417036028 870318703#1 870318703#2 445221161#0 445221161#1 445221161#2 445221161#3 184233298#0 184233298#1 445251189#0 445251189#1 445251189#2 445251189#3 445251189#4 445251189#5 445251189#6 445251189#7 479293768#0 479293769 867726194#0 867726194#1 546114192#0 546114192#1 546114192#2 546114192#3 546114192#4"/>
    </vehicle>
    <vehicle id="26" depart="130.00">
        <route edges="173075652#13 173075652#14 173075549#0 173075549#1 173075549#2 173075549#3 173075549#4 173075549#5 173075549#6"/>
    </vehicle>
    <vehicle id="27" depart="135.00">
        <route edges="-173075653#2 -173075653#1 -173075653#0 -173075744#2 -173075763 173075568#3 173075568#4 173075568#5 173075568#6 402731354 -173075715#1 -173075715#0 -173075549#7 -173075549#6 -173075549#5 -173075549#4 -173075549#3 -173075549#2 -173075549#1 -173075549#0 173075896#0 173075896#1 173075896#2 173075896#3 173075896#4 -173075563#6 -173075563#5 -173075563#4 -173075563#3 -173075563#2 -173075563#1 -173075563#0 -173075786#1 -173075786#0 332465801#5 332465801#6 332465801#7 332465801#8 332465801#9 -173070269#7 -173070269#6 -173070269#5 -173070146#2 -173070146#1 967822584 -173070219#2 -173070219#1 -173070219#0 520723607#0 520723607#1 520721277#0 520721277#1 520721277#2 -185218780#2 -185218780#1 -185218780#0 -173082267#0 -173082279#1 -173082275#5 -173082275#4 -173082275#3 173082275#3"/>
    </vehicle>
    <vehicle id="28" depart="140.00">
        <route edges="-173075650#4 -173075650#3 -173075650#2 -173075650#1 -173075650#0 -173075744#2 -173075763 173075568#3 173075568#4 173075568#5 173075568#6 402731354 173070104#2 173070104#3 173070104#4 173070104#5 173070104#6 173070104#7 173070104#8 -173075837#0 -937459263 173070154 -534701555 -185566944#3 -185566944#2 -185566944#1 -185566944#0 -173070103#1 -173070103#0 -185536389#4 -185536389#3 -185536389#2 -185536389#1 -185536389#0 -173070262#4 -173070262#3 -173070262#2 -520927611#1 -520927611#0"/>
    </vehicle>
    <vehicle id="29" depart="145.00">
        <route edges="964177019#1 945435316 471543034#0 471543034#1 471543034#2 471543034#3 471543034#4 471543034#5 471543040 -471543040 -471543022 -164107681#2 -164107681#1 -164107681#0 -836738797 -164107654#0 1417036038 1184412921 1356731502 164107625#1 164107625#2 164107625#3 164107625#4 164107625#5 173070226#0 173070226#1 173070226#2 445221164 -100070111#4 -100070111#3 -100070111#2 -100070111#1 -100070111#0 -332465801#33 -332465801#32 -332465801#31 -332465801#30 -332465801#29 -332465801#28 -332465801#27 -332465801#26 -332465801#25 -332465801#24 -332465801#23 -185536389#23 -185536389#22 -185536389#21 -185536389#20 -185536389#19 -185536389#18 173070244#0 173070244#1 173070244#2 -173070278#1 -173070278#0 173070283#0 173070283#1 173070283#2 937459265#0 937459265#1 937459265#2 937459265#3 937459265#4 937459265#5 937459265#6 937459265#7 173075652#0 173075652#1"/>
    </vehicle>
    <vehicle id="30" depart="150.00">
        <route edges="173070224#0 -173070224#0 173070183#1 520927612#4 185536389#0 185536389#1 185536389#2 185536389#3 185536389#4 173070103#0 173070103#1 185566944#0 185566944#1 185566944#2 185566944#3 534701555 -173070106#3 -173070106#2 -173070106#1 -173070106#0 -937459265#7 -937459265#6 -937459265#5 -937459265#4 -937459265#3 -937459265#2 -937459265#1 -937459265#0 173075863#0 173075863#1"/>
    </vehicle>
    <vehicle id="31" depart="155.00">
        <route edges="402731354 173070104#2 173070104#3 173070104#4 173070104#5 173070104#6 173070104#7 173070104#8 -173075837#0 -937459263 173070154 -534701555 -185566944#3 -185566944#2 -185566944#1 -185566944#0 -173070103#1 -173070103#0 185536389#5 185536389#6 185536389#7 185536389#8 185536389#9 185536389#10 185536389#11 185536389#12 185536389#13 185536389#14 185536389#15 185536389#16 185536389#17 185536389#18 185536389#19 185536389#20 185536389#21 185536389#22 185536389#23 173070264#0 173070264#1 173070264#2 173070264#3 -546102321#2 -173070108#3 -173070142 520721274#3 520721274#4 -479293767 445255300 479293768#0 479293769 867726194#0 867726194#1 546114192#0 546114192#1 546114192#2 546114192#3 546114192#4 546114192#5 520721271#0 184496021#0 173082198#2 184496032#1 184496029#0 184496029#1 184496049#0 184496049#1 184496037#0"/>
    </vehicle>
    <vehicle id="32" depart="160.00">
        <route edges="-173082176#9 -173082176#8 173082176#8 173082176#9 -520723608 829394751 173070282#0 173070282#1 -649253776 520723607#1 520723607#2 520721276#1 520721276#2 520721275#0 520721275#1 520723612 520723613#0 520723613#1 520723613#2 546102321#0 546102321#1 546102321#2 -173070264#3 -173070264#2 -173070264#1 -173070264#0 -185536389#23 -185536389#22 -185536389#21 -185536389#20 -185536389#19 -185536389#18 -185536389#17 -185536389#16 -185536389#15 -185536389#14 -185536389#13 -185536389#12 -185536389#11 -185536389#10 -185536389#9 -185536389#8 -185536389#7 -173070116"/>
    </vehicle>
    <vehicle id="33" depart="165.00">
        <route edges="-185536389#12 -185536389#11 -185536389#10 -185536389#9 -185536389#8 -185536389#7 -185536389#6 -173070271#4 -173070271#3 -173070271#2 -173070271#1 -173070271#0 -991705195#0 -173070233#2 -173070233#1 -173070233#0 173070202#3 -173070113 173070105#2 -173070221#4 -173070221#3 -173070221#2 -173070221#1 -173070221#0 444987070#3 444987070#4 444987070#5 444987070#6 444987070#7 444987070#8 444987070#9 444987070#10 444987070#11 444987070#12 444987070#13 444987070#14 164107622 164107654#0 164107654#1 164107681#0 164107681#1 471543036#0 471543036#1 471543036#2 471543037 -964177019#1 -964177019#0 471543028#0 471543028#1 471543028#2 471543028#3 471543028#4 173206884#0 173206884#1 173206884#2 -547234541#3 -173206847#3 -173206847#2 -173206847#1 -173206847#0"/>
    </vehicle>
    <vehicle id="34" depart="170.00">
        <route edges="-173075870#1 -173075579 173075652#14 173075896#0 173075896#1 173075896#2 173075896#3 173075896#4 -173075563#6 -173075563#5 -173075563#4 -173075563#3 -173075563#2 -173075563#1 -173075563#0 -173075786#1 -173075786#0 332465801#5 332465801#6 332465801#7 332465801#8 332465801#9 -173070269#7 -173070269#6 -173070269#5 -173070146#2 -173070146#1 967822584 -173070219#2 -173070219#1 -173070219#0 520723607#0 520723607#1 520721277#0 520721277#1 520721277#2 -185218780#2 546120060 -173082279#3 173082284#0 173082284#1 546230123#2"/>
    </vehicle>
    <vehicle id="35" depart="175.00">
        <route edges="445251189#6 173070122 479293767 -520721274#4 -520721274#3 173070142 173070108#3 546102321#2 -173070264#3 -173070264#2 -173070264#1 -173070264#0 -185536389#23 -185536389#22 -185536389#21 -185536389#20 -185536389#19 -185536389#18 -185536389#17 -185536389#16 -185536389#15 -185536389#14 -185536389#13 -185536389#12 -185536389#11 -185536389#10 -185536389#9 -185536389#8 -185536389#7 -185536389#6 -185536389#5 -185536389#4 -185536389#3 -185536389#2"/>
    </vehicle>
    <vehicle id="36" depart="180.00">
        <route edges="173075674#1 -173075563#6 -173075563#5 -173075563#4 -173075563#3 -173075563#2 -173075563#1 -173075563#0 -173075786#1 -173075786#0 332465801#5 332465801#6 332465801#7 332465801#8 332465801#9 332465801#10 332465801#11 332465801#12 332465801#13 332465801#14 332465801#15 332465801#16 332465801#17 332465801#18 332465801#19 332465801#20 332465801#21 332465801#22 173070264#0 173070264#1 173070264#2 173070264#3 -546102321#2 -173070108#3 -173070142 520721274#3 520721274#4 -479293767 445255300 479293768#0 479293769 867726194#0 867726194#1 546114192#0 546114192#1 546114192#2 -546114192#2"/>
    </vehicle>
    <vehicle id="37" depart="185.00">
        <route edges="520721277#1 520721277#2 -520721277#2 -520721277#1 -520721277#0 520723607#2 520721276#1 520721276#2 520721275#0 520721275#1 520723612 520723613#0 520723613#1 520723613#2 546102321#0 546102321#1 546102321#2 -173070264#3 -173070264#2 -173070264#1 -173070264#0 -185536389#23 -185536389#22 1453322190"/>
    </vehicle>
    <vehicle id="38" depart="190.00">
        <route edges="-173087307#2 173087307#2 -173075652#7 -173075652#6 -173075652#5 -173075652#4 -173075652#3 -173075652#2 -173075652#1 -173075652#0 -937459265#7 -937459265#6 -937459265#5 -937459265#4 -937459265#3 -937459265#2 -937459265#1 -937459265#0 -173070283#2 -173070283#1 -173070283#0 173070278#0 173070278#1 -173070244#2 -173070244#1 -173070244#0 185536389#18 185536389#19 185536389#20 185536389#21 185536389#22 185536389#23 173070264#0 173070264#1 173070264#2 173070264#3 -546102321#2 -546102321#1 -546102321#0 -520723613#2 -520723613#1 -520723613#0 179366673 520721275#3 520723607#0 520723607#1 520721277#0 520721277#1 520721277#2 -185218780#2 546120060 -173082279#3 -173082279#2"/>
    </vehicle>
    <vehicle id="39" depart="195.00">
        <route edges="173070228#2 173070228#3 173070098#1 173070098#2 173070098#3 173070098#4 173070098#5 173070098#6 173070098#7 173070098#8 -173070230#0 185197827#0 185197827#1 185197829#0 185197822 -100070021#3 -100070021#2 -100070021#1 -100070021#0 -99907262#4 173070125#0 173070125#1 173070125#2 444987070#10 444987070#11 444987070#12 444987070#13 444987070#14 164107622 164107654#0 164107654#1 164107681#0 164107681#1 471543036#0 471543036#1 471543036#2 471543037 -964177019#1 -964177019#0 471543028#0 471543028#1 471543028#2 471543028#3 471543028#4 173206884#0 173206884#1 173206884#2 -547234541#3 -547234541#2 173206858#2 -173206773#4 -173206773#3"/>
    </vehicle>
    <vehicle id="40" depart="200.00">
        <route edges="173070257#1 -173070257#1 -185204958 332465801#26 173070108#0 -173070139 173070264#2 173070264#3 -546102321#2 -173070108#3 -173070142 520721274#3 520721274#4 -479293767 445255300 479293768#0 479293768#1"/>
    </vehicle>
    <vehicle id="41" depart="205.00">
        <route edges="-546114192#0 173082171 867726195 867726196 -445251189#5 -445251189#4 445255304 -173082162#6 -173082162#5 -173082162#4 -173082162#3 -173082162#2 -173082162#1 -173082162#0"/>
    </vehicle>
    <vehicle id="42" depart="210.00">
        <route edges="99907268#0 -99907268#0 185536389#10 185536389#11 185536389#12 185536389#13 185536389#14 185536389#15 185536389#16 185536389#17 185536389#18 185536389#19 185536389#20 185536389#21 185536389#22 -173070156#1 -173070156#0 173070156#0"/>
    </vehicle>
    <vehicle id="43" depart="215.00">
        <route edges="-173070241#1 -173070241#0 -652919178#0 652919180#0 652919180#1 185536389#14 185536389#15 185536389#16 185536389#17 185536389#18 185536389#19 185536389#20 185536389#21 185536389#22 185536389#23 173070264#0 173070264#1 173070264#2 173070168 -173070168"/>
    </vehicle>
    <vehicle id="44" depart="220.00">
        <route edges="-173070263#3 173070128 546102322 -173070264#0 -185536389#23 -185536389#22 -185536389#21 -185536389#20 -185536389#19 -185536389#18 -185536389#17 -185536389#16 -185536389#15 -185536389#14 -185536389#13 -185536389#12 -185536389#11 -185536389#10 -185536389#9 -185536389#8 -185536389#7 -185536389#6 -185536389#5 173070103#0 173070103#1 185566944#0 185566944#1 185566944#2 185566944#3 534701555 -173070154 937459263 173075837#0 173075837#1 173070093#3 173075797#1 173075797#2 173075797#3 173075797#4 173075584"/>
    </vehicle>
    <vehicle id="45" depart="225.00">
        <route edges="185197827#1 185197829#0 185197829#1 -173070230#2 173070173#0 173070173#1 173070173#2 -99907268#5 173070210#0 173070210#1 173070210#2 173070271#2 173070271#3 173070271#4 -185536389#5 173070103#0 173070103#1 185566944#0 185566944#1 185566944#2 185566944#3 534701555 -173070154 937459263 -937459263"/>
    </vehicle>
    <vehicle id="46" depart="230.00">
        <route edges="-173070200 173070247#2 173070247#3 -185566944#2 -185566944#1 -185566944#0 -173070103#1 -173070103#0 -185536389#4 -185536389#3 -185536389#2 -185536389#1 -185536389#0 -520927612#4"/>
    </vehicle>
    <vehicle id="47" depart="235.00">
        <route edges="99907262#1 99907262#2 99907262#3 99907262#4 100070021#0 100070021#1 100070021#2 100070021#3 -173070190#1 -173070190#0 -100070111#0 -332465801#33 -332465801#32 -332465801#31 -332465801#30 -332465801#29 -332465801#28 -332465801#27 173070108#0 -173070139 173070264#2 173070264#3 -546102321#2 -546102321#1 -546102321#0 -173070196#1 -173070196#0 546102319#0 546102319#1 -546102319#1 -546102319#0 173070196#0"/>
    </vehicle>
    <vehicle id="48" depart="240.00">
        <route edges="838530635#0 838530635#1 838530635#2 445221159#0 445221159#1 445221159#2 445221159#3 445221159#4 445221159#5 444987072"/>
    </vehicle>
    <vehicle id="49" depart="245.00">
        <route edges="-173070090 173070090 520927611#0 520927611#1 173070262#2 173070262#3 173070262#4 185536389#0 185536389#1 185536389#2 185536389#3 185536389#4 185536389#5 185536389#6 185536389#7 185536389#8 185536389#9 185536389#10 185536389#11 185536389#12 185536389#13 185536389#14 185536389#15 185536389#16 185536389#17 185536389#18 185536389#19 185536389#20 185536389#21 185536389#22 185536389#23 173070264#0 173070264#1 173070264#2 173070264#3 -546102321#2 -546102321#1 -546102321#0 -520723613#2 -520723613#1 -520723613#0 179366673 520721275#3 520723607#0 649253776 520723609#0 520723609#1 520723609#2 -829394751 173082245#0"/>
    </vehicle>
    <vehicle id="50" depart="250.00">
        <route edges="173075850#0 173075850#1 173075856#0 173075856#1 173075856#2 173075856#3 173075856#4 -173075863#2 -173075863#1 -173075863#0 937459265#0 937459265#1 -173070260#2 -173070260#1 -173070260#0 -185536389#13 -185536389#12 -185536389#11 -185536389#10 -185536389#9 -185536389#8 -185536389#7 -185536389#6 -173070271#4 -173070271#3 -173070271#2 -173070271#1 -173070271#0 -991705195#0 -173070233#2 -173070217#1 173070204#1"/>
    </vehicle>
    <vehicle id="51" depart="255.00">
        <route edges="-173206773#0 -837051045#1 -837051045#0 837051045#0 837051045#1 173206773#0 173206773#1 173206773#2 173206773#3 173206773#4 -173206858#2 -173206858#1 -173206858#0 870330819#2 870330819#3 870330819#4 547231173 -164107681#2 -164107681#1 -164107681#0 -836738797 -164107654#0 1417036038 1184412921 1356731502 164107625#1 164107625#2 164107625#3 164107625#4 164107625#5 173070226#0 173070226#1 173070226#2 445221164 -100070111#4 -100070111#3 -100070111#2 -100070111#1 -100070111#0 -332465801#33 -332465801#32 -332465801#31 -332465801#30 -332465801#29 -332465801#28 -332465801#27 -332465801#26 -332465801#25 -332465801#24 -332465801#23 -185536389#23 -185536389#22 -185536389#21 -185536389#20 -185536389#19 -185536389#18 173070244#0 173070244#1 173070244#2 -173070278#1 -173070278#0 173070283#0 173070283#1 173070283#2 937459265#0 937459265#1 937459265#2 937459265#3 937459265#4 937459265#5 937459265#6 937459265#7 173075652#0 173075652#1 173075652#2 173075652#3 173075652#4 173075652#5 173075652#6 173075652#7 173075652#8 173075652#9 173075652#10 173075652#11 173075652#12"/>
    </vehicle>
    <vehicle id="52" depart="260.00">
        <route edges="-173070266 -185536389#16 -185536389#15 -185536389#14 -652919180#1 -652919180#0 652919178#0 652919178#1 652919178#2 652919178#3 652919178#4 652919178#5 870379685 99907262#3 99907262#4 100070021#0"/>
    </vehicle>
    <vehicle id="53" depart="265.00">
        <route edges="1032064077#2 1032064077#3 1032064077#4 1032064077#5 838530635#0 838530635#1 838530635#2 -520927620 173070248#0 173070248#1 173070248#2 173070248#3 173070248#4 173070105#5 173070171#0 185303832#0 185303832#1 185303832#2 520927611#0 520927611#1 -173070262#1 -173070262#0 -578258726#3 -578258726#2 -578258726#1 578258726#1"/>
    </vehicle>