<?xml version="1.0" encoding="UTF-8"?>

<!-- generated on 2025-12-03 03:09:52.251356 by Eclipse SUMO randomTrips.py UNKNOWN
<configuration>
    <net-file value="/app/scenarios/simulacao.net.xml"/>
    <route-file value="/app/scenarios/simulacao.rou.xml"/>
    <end value="1000.0"/>
    <period value="3.3333333333333335"/>
</configuration>
-->

<!-- generated on 2025-12-03T03:09:51.742656+00:00 by Eclipse SUMO duarouter 1.25.0
<duarouterConfiguration xmlns:xsi="http://www.w3.org/2001/XMLSchema-instance" xsi:noNamespaceSchemaLocation="http://sumo.dlr.de/xsd/duarouterConfiguration.xsd">

    <input>
        <net-file value="/app/scenarios/simulacao.net.xml"/>
        <route-files value="trips.trips.xml"/>
    </input>

    <output>
        <output-file value="/app/scenarios/simulacao.rou.xml"/>
        <alternatives-output value="NUL"/>
    </output>

    <time>
        <begin value="0"/>
        <end value="1000.0"/>
    </time>

    <report>
        <no-warnings value="true"/>
        <ignore-errors value="true"/>
        <no-step-log value="true"/>
    </report>

</duarouterConfiguration>
-->

<routes xmlns:xsi="http://www.w3.org/2001/XMLSchema-instance" xsi:noNamespaceSchemaLocation="http://sumo.dlr.de/xsd/routes_file.xsd">
    <vehicle id="0" depart="0.00">
        <route edges="159607615 932560215#1 932560215#2 932560215#3 932560215#4 932560215#5 159607617 -932566961#1 -932566961#0 -544131197#5 -544131197#4 -544131197#3 -544131197#2 -544131197#1 152906305#0 152906305#1 152906305#2 152906305#3 152906305#4 152906305#5 152906305#6 151409239#0 151409239#1 151409239#2 654320593#0 654320593#1 654320593#2 654320593#3 -152906301#12"/>
    </vehicle>
    <vehicle id="1" depart="3.33">
        <route edges="-534541146#2 -534541146#1 208937199#0 208937199#1 61599679#4 61599679#5 934059071 865231350#0 865231350#1 865231350#2 865231350#3 865231350#4 865231349#0 865231349#1 865231349#2 425040572#4 425040572#5 425040572#6 425040572#7 425040572#8 208807809#0 208807809#1 208807809#2 208807809#3 -208807809#3 -208807809#2"/>
    </vehicle>
    <vehicle id="2" depart="6.67">
        <route edges="858883810 157476278#0 157476278#1 157476278#2 933926388 151253397 151253424 933926386 148980222 148980218#0 148980218#1 148980218#2 147022275#0 147022275#1 644488893#1 644488893#2 644488893#3 614141997#0 614141997#1 208865755#0 208865755#1 208865755#2 208865755#3 208807809#6 -157940055#2"/>
    </vehicle>
    <vehicle id="3" depart="10.00">
        <route edges="152906305#2 152906305#3 152906305#4 152906305#5 152906305#6 151409219#0 151409219#1 151409219#2 151409219#3 151409219#4 151409219#5 151409219#6 151409219#7 151409219#8 151409219#9 151409219#10 151409219#11 151409219#12 151409219#13 151409219#14 151409219#15 151409219#16 151409219#17 151409219#18 151409219#19 151409219#20 932627416 -158280231#3 -152906307#2 -152906307#1 -152906307#0"/>
    </vehicle>
    <vehicle id="4" depart="13.33">
        <route edges="-152906301#5 -152906301#4 157940062#1 -657414949#2 -657414949#1 -657414949#0 -535826749#1 -535826749#0 -924643996#1 -924643996#0 -924643997#2 -924643997#1 535826747 -932924805#7 -932924805#6 -932924805#5 -932924805#4 -932924805#3 -932924805#2 -932924805#1 -932924805#0 -152906302#1 160287939#0 160287939#1 -163291388#0 -158280231#3 -152906307#2 -152906307#1 -159758946#5 -159758953"/>
    </vehicle>
    <vehicle id="5" depart="16.67">
        <route edges="159687207#2 159687207#3 154515532#1 154515532#2 -159687204#3 159687223 -320430327#8 320430350 159687246#0 159687246#1 159687246#2 159687246#3 159687246#4 151409215#2 151409215#3 151409215#4 151409215#5 151409215#6 151409215#7 151409215#8 864984639 159663757#1 159663758#0 159663758#1 210485998#6 147416050#2 147416050#3 147416050#4 147416050#5 147416050#6 147416050#7 147416050#8 -147416051#2 -147416051#1 -147416051#0 932920607 -932920606#1 -932920606#0 147215682 -924643996#1 932920603 904133080 157940070#2"/>
    </vehicle>
    <vehicle id="6" depart="20.00">
        <route edges="-208807809#1 208865761#4 208865761#5 644486337#0 644486337#1 644488893#8 644488893#9 644488893#10 644488893#11 644488893#12 644488893#13 644488893#14 644488893#15 644488893#16 644488893#17 644488893#18 644488893#19 644488893#20 644488893#21 644488893#22 158257457#0 158257458#0"/>
    </vehicle>
    <vehicle id="7" depart="23.33">
        <route edges="544147144#2 544147144#3 157940071#3 157940071#4 657414949#6 657414949#7 157940075#1 157940075#2 157940075#3 157940075#4 157940075#5 932916368#7 932916368#8 932916368#9 932916368#10 932916368#11 154612345#0 154612345#1 154612345#2 154612345#3 644486341#4 644486341#5 154612319 -154612329#1 -154612329#0 154612303#4 -154360887#2 -154360887#1 -154360887#0 -1389663566#0"/>
    </vehicle>
    <vehicle id="8" depart="26.67">
        <route edges="544131195#1 -932924804#1 -932924804#0 159607443#0 159607443#1 147416053#1 147416053#2 210485968#0 210485968#1 210485968#2 210485992#0 210485992#1 210485992#2 924643997#0 924643997#1 924643997#2 924643996#0 924643996#1 535826749#0 535826749#1 657414949#0 657414949#1 657414949#2 657414949#3 157940055#1 157940055#2 -208865757#5 -208865757#4 -208865757#3 -208865757#2 -208865757#1 -208865757#0 614141998#0 644486338 677780401 864908554#1 176887904#0 176887903#0 176887903#1 176887909"/>
    </vehicle>
    <vehicle id="9" depart="30.00">
        <route edges="-935855542 154620319#0 154620317#5 154620317#6 935862002 935862001 -176887901#1 -176887901#0 -424752608#1 -424752608#0 147602601#0 176887501 864965680#0 864965680#1 310262767 -154612293#1 -154612293#0 411833958 154612303#3 154612329#0 154612329#1 934066498 644486341#6 644486341#7 644486341#8 644486341#9 644486341#10 644486341#11 644486341#12 644486341#13 644486341#14 934372614 934372613 934372615#0 934372615#1 934372615#2 934372615#3 934372615#4 934372615#5 -781835084 -159687281#1 -159687281#0 -932924804#1 -932924804#0 159607443#0 159607443#1 -158280247#2"/>
    </vehicle>
    <vehicle id="10" depart="33.33">
        <route edges="934046683#6 934046683#7 934046683#8 425040573#0 425040573#1 425040573#2 398857888 425038348#0 425038348#1 425038347#0 425038347#1 425038347#2 425038347#3 425038347#4 932510346#1 936815983#0 936815983#1 932510347#0 932510347#1 932510347#2 932510347#3 932510347#4 932510347#5 932510347#6 932510347#7 932510349 878597029#1 878597030 -878597028#1 -878597028#0 -163291397 -933989371 -933934859 159607488#0 159607488#1 159607488#2 159607488#3 935471437 163291395#0 163291395#1 933975354#0 -933975354#0"/>
    </vehicle>
    <vehicle id="11" depart="36.67">
        <route edges="-157940059#9 157940044#0 157940044#1 157940071#2 157940071#3 -152906301#7 -152906301#6 -152906301#5 -152906301#4 -152906301#3 -152906301#2 -152906301#1 -152906301#0 -157940070#2 -157940070#1 -157940070#0"/>
    </vehicle>
    <vehicle id="12" depart="40.00">
        <route edges="644486338 644486341#0 644486341#1 644486341#2 644486341#3 644486341#4 644486341#5 644486341#6 644486341#7 644486341#8 644486341#9 644486341#10 644486341#11 159663753 147416050#0 147416050#1 147416050#2 210485939#0 210485939#1 158280239#3 158280239#4"/>
    </vehicle>
    <vehicle id="13" depart="43.33">
        <route edges="544131197#2 544131197#3 544131197#4 544131197#5 932566961#0 932566961#1 159607615 932560215#1 932560215#2 932560215#3 544139438 208937196#0 208937196#1 208937196#2 208937196#3 537568165 537568168#0 537568168#1 158280231#0 158280231#1 158280231#2 158280231#3 917877012#0 917877012#1 533828806#0 533828806#1 533828806#2 210486001#0 210486001#1 210486001#2"/>
    </vehicle>
    <vehicle id="14" depart="46.67">
        <route edges="147602626#2 864928694 935539620#7 935539620#8 935499133#0 935499133#1 935499134 864965680#0 864965680#1 310262767 154612291#0 154612291#1 154612291#2 154612291#3 154612291#4 154612291#5 154515549 934340710 904908637 649294583 935566709 -154515558#2 -154515558#1 -154515558#0 865283605 154612348#3 154612348#4 154612348#5 154612348#6 865283606 -154515538#9 -154515538#8 -154515538#7 -154515538#6 -154515538#5 -154515538#4 -552381064 158029576#3"/>
    </vehicle>
    <vehicle id="15" depart="50.00">
        <route edges="596530619#2 596530619#3 935453495#0 935453495#1 596223916 596223927#4 596223927#5 596223927#6 596223901#0 596223901#1 596223901#2 596223901#3 596223901#4 596223901#5 -878597028#1 -878597028#0 -163291397 -933989371 -933934859 159607488#0 159607488#1 159607488#2 159607488#3 935471437 163291395#0 163291395#1 933975354#0 933975354#1 933975354#2 932496187 151409219#0 151409219#1 151409219#2 151409219#3 151409219#4 151409219#5 151409219#6 151409219#7 151409219#8 151409219#9 158280251#0 158280251#1 158280251#2 158257423#6 158280253#4 158280253#5"/>
    </vehicle>
    <vehicle id="16" depart="53.33">
        <route edges="654312377#0 654312377#1 654312377#2 163291400#0 163291400#1 415880967#4 415880967#5 -424752608#1 -424752608#0 -935855544 -935855545 424759368#0 424759368#1 424759368#2 424759368#3 424759368#4 424759368#5 424759368#6 425038348#0 425038348#1 425038347#0 425038347#1 425038347#2 425038347#3 425038347#4 932510346#1 936815983#0 936815983#1 932510347#0 932510347#1 932510347#2 932510347#3 932510347#4 932510347#5 932510347#6 932510347#7 932510349 878597029#1 878597030 -878597028#1 -878597028#0 -163291397 -933989371 -933934859 159607488#0 159607488#1 159607488#2 159607488#3 935471437 163291395#0 163291395#1 933975354#0 933975354#1 933975354#2 932496187 151409219#0 151409219#1 151409219#2 151409219#3 151409219#4 151409219#5 158257442#0 158257442#1 158257442#2 158257442#3 158257442#4 158257442#5 932566959 544131197#2 544131197#3 158257441#0"/>
    </vehicle>
    <vehicle id="17" depart="56.67">
        <route edges="208807816 -208807816 159607488#3 534531522 935471436 596175694#0 152906316#0 152906316#1 152906316#2 152906316#3 152906316#4 152906316#5 425040572#6 425040572#7 425040572#8 654320593#6 932914119#0 932914119#1 644486338 644486341#0 644486341#1 644486341#2 644486341#3 644486341#4 644486341#5 644486341#6 644486341#7 644486341#8 644486341#9 644486341#10 644486341#11 644486341#12 644486341#13 644486341#14 934372614 159663756#0 159663756#1 154360878#0 154360878#1 154360878#2 -154360883#4"/>
    </vehicle>
    <vehicle id="18" depart="60.00">
        <route edges="-208865757#5 -208865757#4 -208865757#3 -208865757#2 208865757#2 208865757#3 208865757#4 208865757#5 -157940055#2 -157940055#1 -157940055#0 152906301#5 -157940048 -544147144#2"/>
    </vehicle>
    <vehicle id="19" depart="63.33">
        <route edges="-157940044#4 -157940044#3 -157940044#2 -157940044#1 -157940044#0 -157940059#8 -158257451#1 -158257451#0 158257411#5 208865752 151409219#3 151409219#4 151409219#5 151409219#6 151409219#7 151409219#8 151409219#9 158280251#0 158280251#1 158257428#5 158257428#6 904133921 -537568165 -208937196#3 -208937196#2"/>
    </vehicle>
    <vehicle id="20" depart="66.67">
        <route edges="-157940071#4 152906301#8 152906301#9 152906301#10 157940075#0 657414949#8 644486337#0 644486337#1 644488893#8 644488893#9 644488893#10 644488893#11 644488893#12 644488893#13 163291396 596175694#0 596175694#1 534531521 159607488#1 208807813 152906312#8 208937203#0 208937203#1 158257457#10 -61599679#3 -61599679#2 -61599679#1 -534541143"/>
    </vehicle>
    <vehicle id="21" depart="70.00">
        <route edges="159607476 -151409237#2 -151409237#1 -151409237#0 210485963#1 210485963#2 932924803 781864485#0 781864485#1 781864485#2 147416053#0 147416053#1 147416053#2"/>
    </vehicle>
    <vehicle id="22" depart="73.33">
        <route edges="-425040572#7 425040572#7 425040572#8 208807809#0 208865761#4 208865761#5 -657414949#8 -657414949#7 -657414949#6 -657414949#5 -657414949#4 -657414949#3 -657414949#2 -657414949#1 -657414949#0 -535826749#1 -535826749#0 -924643996#1 -924643996#0 -924643997#2 -924643997#1 535826747 -932924805#7 -932924805#6 -932924805#5 -932924805#4 -932924805#3 -932924805#2 -932924805#1 932924805#1"/>
    </vehicle>
    <vehicle id="23" depart="76.67">
        <route edges="159687204#0 159687204#1 159687204#2 159687223 -320430327#8 320430350 159687246#0 159687246#1 159687246#2 159687246#3 159687246#4 151409215#2 151409215#3 151409215#4 151409215#5 151409215#6 151409215#7 151409215#8 864984639 159663757#1 159663758#0 159663758#1 210485998#6 147416050#2 147416050#3 147416050#4 147416050#5 147416050#6 147416050#7 147416050#8 210486008 -157940054#2 -157940054#1 -157940054#0 -924643997#1 535826747 932924806#0 932924806#1 -158280262#5 -158280262#4 -158280262#3 -158280262#2 -158280230#2 158280243#5 158280243#6"/>
    </vehicle>
    <vehicle id="24" depart="80.00">
        <route edges="-159607450 -158280247#1 -159607481#3 -210486001#1 -210486001#0 210486001#0"/>
    </vehicle>
    <vehicle id="25" depart="83.33">
        <route edges="-158280259#3 158280259#3 932924805#6 932924805#7 773876436 924643997#0 924643997#1 924643997#2 924643996#0 924643996#1 535826749#0 535826749#1 657414949#0 657414949#1 657414949#2 657414949#3 157940055#1 157940055#2 -208865757#5 -208865757#4 -208865757#3 -208865757#2 -208865757#1 -208865757#0 614141998#0 644486338 677780401 864908554#1 176887904#0 176887904#1 176887904#2 176887904#3 424759367 934056329#3 935855545 935855544 147602601#0 147602601#1 147602601#2 147602601#3 654312377#0 654312377#1 654312377#2 654312377#3 654312377#4 654312377#5 654312377#6 654312377#7 654312377#8 654312377#9 82538268#0 82538268#1 82538268#2 82538268#3 82538268#4 82538268#5 82538268#6 82538268#7 82538268#8 82538268#9 147602625#0"/>
    </vehicle>
    <vehicle id="26" depart="86.67">
        <route edges="158257409#1 -158257409#1 -158257409#0 -534541146#3 -534541146#2 159607473 596223896 596223901#0 596223901#1 596223901#2 596223901#3 596223901#4 596223901#5 425040575#0 425040575#1 596530621#0 596530621#1 596530621#2 596530621#3 596530621#4 878879415#0 878879415#1 932510348 934046683#1 934046683#2 151409226 151409197#1 148980218#1 677780403 934433514#1 934433514#2 148980221 933926385 151253387#0 151253387#1 933967143 593068412#0 593068412#1 593068412#2 593068412#3 593068412#4 593068412#5 593068412#6 593068412#7 -176887096#4 -176887096#3 -176887096#2 -176887096#1 -176887096#0 176887096#0"/>
    </vehicle>
    <vehicle id="27" depart="90.00">
        <route edges="61599686#4 61599686#5 61599686#6 61599686#7 878597028#0 878597028#1 425040575#0 425040575#1 596530621#0 596530621#1 596530621#2 596530621#3 596530621#4 878879415#0 878879415#1 425040572#0 425040572#1"/>
    </vehicle>
    <vehicle id="28" depart="93.33">
        <route edges="-208937196#1 -208937196#0 159607616 932560215#5 159607617 -932566961#1 -932566961#0 -544131197#5 -544131197#4 -544131197#3 -544131197#2 -544131197#1 152906305#0 152906305#1 152906305#2 152906305#3 152906305#4 152906305#5 152906305#6 -932496187 -933975354#2 -933975354#1 -933975354#0 -865292531 -933990754#1 -158257414#1 -152906312#4 -152906312#3"/>
    </vehicle>
    <vehicle id="29" depart="96.67">
        <route edges="-922886435#0 157479789#2 157479789#3 157479789#4 157479789#5 922886754 -157479787#2 -157479787#1 -157479787#0 858801862#0 858801862#1 261590954#0 261590954#1 157476278#0 157476278#1 157476278#2 933926388 151253397 151253424 933926386 148980222 148980218#0 148980218#1 148980218#2 147022275#0 147022275#1 644488893#1 644488893#2 644488893#3 614141997#0 932914119#0 932914119#1 644486338 677780401 864908554#1 176887904#0 176887904#1 176887904#2 176887904#3 424759367 934056329#3 935855545 935855544 424752608#0 424752608#1 -424752608#1"/>
    </vehicle>
    <vehicle id="30" depart="100.00">
        <route edges="700872668#1 700872668#2 158280254#1 158280254#2 158280237 -158280239#8 -158280239#7 -158280239#6 -158280239#5 -158280239#4 -158280239#3 -210485939#1 -210485939#0 -147416050#2 -147416050#1 -147416050#0 417442717 644486341#13 644486341#14 934372614 159663756#0 159663756#1 151409215#7 151409215#8 151409215#9 154360895#0 946563551 -154360891#0 154360887#1 154360887#2 154612303#5 154612303#1 154612335 154612293#0 154612293#1 411833961#0 411833961#1 935499134 934056329#0 934056329#1 934056329#2 934056329#3 935855545 935855544 424752608#0 424752608#1 176887901#0 176887901#1 935440956 147602617#0 147602617#1 866652176 -866652176"/>
    </vehicle>
    <vehicle id="31" depart="103.33">
        <route edges="159687246#1 159687246#2 159687246#3 159687246#4 151409215#2 151409215#3 151409215#4 151409215#5 151409215#6 151409215#7 151409215#8 151409215#9 151409215#10 151409215#11 151409215#12 1422827117#0 1422827117#1 1422827117#2 1422827116#1 1422827115 934433512#0 934433512#1 934433514#0 934433514#1 934433514#2 148980221"/>
    </vehicle>
    <vehicle id="32" depart="106.67">
        <route edges="922886435#1 -922886435#1 160348133#0 157479789#1 157479789#2 157479789#3 157479789#4 157479789#5 922886754 -157479787#2 -157479787#1 -157479787#0 858801862#0 858801862#1 261590954#0 261590954#1 157476278#0 157476278#1 157476278#2 933926388 151253397 151253424 933926386 148980222 148980218#0 148980218#1 148980218#2 148980218#3 148980218#4 148980218#5 934433513 644486341#0 644486341#1 644486341#2 644486341#3 644486341#4 644486341#5 154612319 -154612329#1 -154612329#0 154612303#4 -154360887#2 -154360887#1 -154360887#0 1389663566#1 1389663566#2 -649294581#1 -649294581#0 649294583 935566709 -154515558#2 -154515558#1 -154515558#0 865283605 154612348#3 154612348#4 154612348#5 154612348#6 865283606 -154515538#9 -154515538#8 -154515538#7 -154515538#6 -154515538#5 -154515538#4 -154515538#3 -154515538#2 -154515538#1 -154515538#0 626295358 154515532#0"/>
    </vehicle>
    <vehicle id="33" depart="110.00">
        <route edges="-425040572#0 425040572#0 425040572#1 425040572#2 425040572#3 425040572#4 425040572#5 425040572#6 425040572#7 425040572#8 208807809#0 208865761#4 208865761#5 -657414949#8 -657414949#7 -657414949#6 -657414949#5 -657414949#4 -657414949#3 -657414949#2 -657414949#1 -657414949#0 -535826749#1 -535826749#0 -924643996#1 -924643996#0 -924643997#2 -924643997#1 -924643997#0 -210485992#2 -210485992#1 -210485992#0 -210485968#2 -210485968#1 -210485968#0 -147416053#2 -147416053#1 -147416053#0 -210486001#2 -210486001#1"/>
    </vehicle>
    <vehicle id="34" depart="113.33">
        <route edges="158257457#2 158257457#3 158257457#4 158257457#5 158257457#6 158257457#7 158257457#8 158257457#9 -208937203#1 -208937203#0 152906312#9 152906312#10 934059071 163291397 878597028#0 878597028#1 425040575#0 425040575#1 596530621#0 596530621#1 596530621#2 596530621#3 596530621#4 878879415#0 878879415#1 932510348 934046683#1 934046683#2 934046683#3 934046683#4 934046683#5 934046683#6 934046683#7 934046683#8 425040573#0 425040573#1 425040573#2 425040573#3 425040573#4 425040573#5 425040573#6 425040573#7 425040573#8 425040573#9 425040573#10 425040573#11 425040573#12 425040573#13 425040573#14 425040573#15 425040573#16 934056330#0 934056330#1 934056330#2 864965680#1 310262767 154612291#0 154612291#1 154612291#2 154612291#3 154612291#4 865212941"/>
    </vehicle>
    <vehicle id="35" depart="116.67">
        <route edges="151253412 -151250452#1 -151250452#0 946641457 151253407#0 151253407#1 151253407#2 151253407#3 151253415 933926386 148980222 148980218#0 148980218#1 148980218#2 148980218#3 148980218#4 148980218#5 934433513 644486341#0 644486341#1 644486341#2 644486341#3 644486341#4 644486341#5 154612319 -154612329#1 -154612329#0 154612303#4 154612303#5 154612303#1 154612335 154612293#0 154612293#1 154376206 1353659391 176887506#0 176887506#1 -176887905"/>
    </vehicle>
    <vehicle id="36" depart="120.00">
        <route edges="-157940059#4 -157940059#3 -157940059#2 -157940059#1 -157940059#0 -932924806#8 -932924806#7 -932924806#6 -932924806#5 -932924806#4 -932924806#3 -932924806#2 -932924806#1 -932924806#0 773876436 924643997#0 924643997#1 924643997#2 719473884 932920606#0 932920609 147416051#0 147416051#1 147416051#2 -147416050#8 -147416050#7 -147416050#6 -147416050#5 -147416050#4 -147416050#3 -147416050#2 -147416050#1 -147416050#0 417442717 644486341#13 644486341#14 934372614 159663756#0 159663756#1 154360878#0 154360878#1 154360878#2 154360883#5 782103275#0 782103275#1 782103275#2 154612334 154612348#6 865283606 -154515538#9 -154515538#8 -154515538#7 -154515538#6 -154515538#5 -154360885#2"/>
    </vehicle>
    <vehicle id="37" depart="123.33">
        <route edges="-158257403 152906312#4 158257414#1 933990754#1 865292531 933975354#0 933975354#1 933975354#2 932496187 151409219#0 151409219#1 151409219#2 151409219#3 151409219#4 151409219#5 151409219#6 151409219#7 151409219#8 151409219#9 151409219#10 157940050#0 934037737#3 934037737#4 -932924806#10 -932924806#9 -932924806#8 -932924806#7 -932924806#6 -932924806#5 -932924806#4 -932924806#3 -932924806#2 -932924806#1 -932924806#0 773876436 924643997#0 924643997#1 157940054#0 157940054#1 157940054#2 157940054#3 158280266#0"/>
    </vehicle>
    <vehicle id="38" depart="126.67">
        <route edges="533828799#1 533828799#2 533828799#3 -217676886 159758947#2 159758947#3 -163291388#1 -163291388#0 917877012#0 917877012#1 932924805#0 932924805#1 932924805#2 932924805#3 932924805#4 932924805#5 932924805#6 932924805#7 773876436 924643997#0 924643997#1 924643997#2 924643996#0 924643996#1 535826749#0 535826749#1 657414949#0 657414949#1 657414949#2 657414949#3 657414949#4 657414949#5 -157940071#4 152906301#8 152906301#9"/>
    </vehicle>
    <vehicle id="39" depart="130.00">
        <route edges="-154612340#0 154612340#0 154612340#1 154612309 -154612291#2 -154612291#1 -154612291#0 411833961#0 411833961#1 935499134 934056329#0 934056329#1 934056329#2 934056329#3 935855545 935855544 147602601#0 147602601#1 147602601#2 147602626#0 147602626#1 147602626#2"/>
    </vehicle>
    <vehicle id="40" depart="133.33">
        <route edges="946645541 -158280243#0 -932924806#7 -932924806#6 -932924806#5 -932924806#4 -932924806#3 -932924806#2 -932924806#1 -932924806#0 773876436 924643997#0 924643997#1 924643997#2 924643996#0 924643996#1 535826749#0 -210485959 157940053#1"/>
    </vehicle>
    <vehicle id="41" depart="136.67">
        <route edges="-147416051#2 -147416051#1 -147416051#0 932920607 -932920606#1 -932920606#0 147215682 -924643996#1 -924643996#0 -924643997#2 -924643997#1 535826747 -932924805#7 -932924805#6 -932924805#5 -932924805#4 -932924805#3 -932924805#2 -932924805#1 -932924805#0 -152906302#1 160287939#0 210485956"/>
    </vehicle>
    <vehicle id="42" depart="140.00">
        <route edges="-425040572#6 152906316#6 61599661#2 61599661#3 614141997#0 932914119#0 932914119#1 644486338 644486341#0 644486341#1 644486341#2 644486341#3 644486341#4 644486341#5 644486341#6 644486341#7 644486341#8 644486341#9 644486341#10 644486341#11 644486341#12 644486341#13 644486341#14 934372614 159663756#0"/>
    </vehicle>
    <vehicle id="43" depart="143.33">
        <route edges="-158257411#10 -158257411#9 -158257411#8 -158257411#7 934055667 -152906318#1 -152906318#0 152906318#0"/>
    </vehicle>
    <vehicle id="44" depart="146.67">
        <route edges="154376207#1 154376207#2 641688033#0 641688033#1 904908636 -154612291#5 -154612291#4 -154612291#3 -154612291#2 -154612291#1 -154612291#0 154376206 154612296 147215684 424759369 -932916368#11 -932916368#10 157940061#0 157940061#1 -208865757#0 208865761#2 208865761#3 208865761#4 208865761#5 208865761#6 -157940059#10 -157940059#9 -157940059#8 -157940059#7 -157940059#6 -157940059#5 -157940059#4 -157940059#3 -157940059#2 -738406937 934037738#1"/>
    </vehicle>
    <vehicle id="45" depart="150.00">
        <route edges="700872668#0 700872668#1 700872668#2 -158280254#0 -157940054#5 -157940054#4 -157940054#3 -157940054#2 -157940054#1 -157940054#0 924643997#2 924643996#0 924643996#1 535826749#0 535826749#1 657414949#0 657414949#1 657414949#2 657414949#3 657414949#4 657414949#5 657414949#6 657414949#7 657414949#8 644486337#0 644486337#1 644488893#8 644488893#9 644488893#10 644488893#11 644488893#12 644488893#13 163291396 596175694#0 596175694#1 534531521 159607488#1 208807813 152906312#8 208937203#0 208937203#1 -158257457#9 -385947813#1"/>
    </vehicle>
    <vehicle id="46" depart="153.33">
        <route edges="157479787#2 -157479787#2 -157479787#1 -157479787#0 858801862#0 858801862#1 261590954#0 261590954#1 157476278#0 157476278#1 157476278#2 933926388 151253397 151253424 933926386 148980222 148980218#0 148980218#1 677780403 934433514#1 933950760#0 933950760#1 933950760#2 933950760#3 934046683#5 934046683#6 934046683#7 934046683#8 425040573#0 425040573#1 425040573#2 398857888 936815984 154620284 154620292#0 -159664237#7 -159664237#6 -159664237#5 -159664237#4 -159664237#3 -159664237#2 -159664237#1 -159664237#0"/>
    </vehicle>
    <vehicle id="47" depart="156.67">
        <route edges="917877012#0 917877012#1 932924805#0 932924805#1 932924805#2 932924805#3 932924805#4 932924805#5 932924805#6 932924805#7 773876436 924643997#0 924643997#1 924643997#2 924643996#0 924643996#1 535826749#0 535826749#1 657414949#0 657414949#1 657414949#2 657414949#3 657414949#4 657414949#5 657414949#6 657414949#7 657414949#8 644486337#0 654320593#5 654320593#6"/>
    </vehicle>
    <vehicle id="48" depart="160.00">
        <route edges="-626295361#1 -626295361#0 -160289173#5 -160289173#4 -160289173#3 967751864 967751865#0 967751865#1 967751865#2 160289164 935571202#0 935571202#1 151409215#6 151409215#7 151409215#8 864984639 159663757#1 159663758#0 159663758#1 210485998#6 147416050#2 147416050#3 147416050#4 147416050#5 147416050#6 147416050#7 147416050#8 -147416051#2 -147416051#1 -147416051#0 932920607 -932920606#1 -932920606#0 147215682 535826749#0 535826749#1 657414949#0 657414949#1 657414949#2 657414949#3 657414949#4 657414949#5 657414949#6 657414949#7 657414949#8 644486337#0 644486337#1 644488893#8 644488893#9 644488893#10 644488893#11 644488893#12 644488893#13 163291396 596175694#0 596175694#1 932505441 159607488#0"/>
    </vehicle>
    <vehicle id="49" depart="163.33">
        <route edges="158280246#2 -158280226#1 -158280226#0 -147416051#0 932920607 -932920606#1 -932920606#0 147215682 -924643996#1 -924643996#0 -924643997#2 -924643997#1 535826747 932924806#0 932924806#1 932924806#2 932924806#3 932924806#4 932924806#5 932924806#6 932924806#7 158280243#0 158280243#1 -158280243#1"/>
    </vehicle>
    <vehicle id="50" depart="166.67">
        <route edges="415876685#6 415876685#7 415876685#8 415876685#9 935862002 935862001 -176887901#1 -176887901#0 -424752608#1 -424752608#0 147602601#0 176887501 864965680#0 864965680#1 864965680#2 154612296 147215684 424759369 -932916368#11 -932916368#10 157940061#0 157940061#1 208865757#1 208865757#2 208865757#3 208865757#4 208865757#5 -157940055#2 -157940055#1 -157940055#0 -152906301#4 157940062#1"/>
    </vehicle>
    <vehicle id="51" depart="170.00">
        <route edges="425040572#5 425040572#6 425040572#7 425040572#8 208807809#0 208865761#4 208865761#5 -657414949#8 -657414949#7 -657414949#6 -657414949#5 -657414949#4 -657414949#3 -657414949#2 -657414949#1 -657414949#0 -535826749#1 -535826749#0 -924643996#1 -924643996#0 -924643997#2 157940054#0 157940054#1 157940054#2"/>
    </vehicle>
    <vehicle id="52" depart="173.33">
        <route edges="-1144993963#1 152906307#0 152906307#1 152906307#2 158280231#3 917877012#0 917877012#1 932924805#0 932924805#1 932924805#2 932924805#3 932924805#4 932924805#5 932924805#6 932924805#7 773876436 924643997#0 924643997#1 924643997#2 924643996#0 924643996#1 535826749#0 535826749#1 657414949#0 657414949#1 657414949#2 657414949#3 157940055#1 157940055#2 -208865757#5 -208865757#4 -208865757#3 -208865757#2 157940075#5 932916368#7 932916368#8 932916368#9 932916368#10 932916368#11 -932916368#11"/>
    </vehicle>
    <vehicle id="53" depart="176.67">
        <route edges="-151409219#19 -151409219#18 158280230#0 158280230#1 158280230#2 158280262#2 158280262#3 158280262#4 158280262#5 -932924806#1 -932924806#0 773876436 924643997#0 924643997#1 924643997#2 924643996#0 924643996#1 535826749#0 535826749#1 657414949#0 657414949#1 657414949#2 157940062#2 157940062#3 208807809#8 932916366 932916368#0 932916368#1 932916368#2 932916368#3 932916368#4 932916368#5"/>
    </vehicle>
    <vehicle id="54" depart="180.00">
        <route edges="719473885#1 719473885#2 932918001 157940053#0 210485959 535826749#1 657414949#0 657414949#1 657414949#2 657414949#3 657414949#4 657414949#5 657414949#6 657414949#7 657414949#8 644486337#0 644486337#1 865249793#0 865249793#1 865231349#0 61599682 61599686#3 596530622 596530621#0"/>
    </vehicle>
    <vehicle id="55" depart="183.33">
        <route edges="-781835084 -217657712#1 933909635 311743472#0 311743472#1 934041954#7 151409215#0 151409215#1 151409215#2 151409215#3 151409215#4 151409215#5 151409215#6 154360878#0 154360878#1 154360878#2 154360883#5 782103275#0 782103275#1 782103275#2 154612334 154612348#6 154612348#7 154612348#1 865283604 154515558#0 154515558#1 -154515558#1"/>
    </vehicle>
    <vehicle id="56" depart="186.67">
        <route edges="719473884 147215682 -924643996#1 -924643996#0 -924643997#2 157940054#0 157940054#1 157940054#2 157940054#3 157940054#4 157940054#5 157940054#6 157940054#7 158280267 934372615#4 934372615#5 934372615#6 311743471#0 311743471#1 933944850"/>
    </vehicle>
    <vehicle id="57" depart="190.00">
        <route edges="-157940054#3 -157940054#2 -157940054#1 -157940054#0 924643997#2 924643996#0 924643996#1 535826749#0 535826749#1 657414949#0 657414949#1 657414949#2 657414949#3 657414949#4 657414949#5 657414949#6 657414949#7 657414949#8 644486337#0 644486337#1 865249793#0 865249793#1 865231349#0 61599682 864956382 878879415#0 878879415#1 932510348 934046683#1 934046683#2 934046683#3 934046683#4 934046683#5 -159665551 154620298#1"/>
    </vehicle>
    <vehicle id="58" depart="193.33">