<?xml version="1.0" encoding="UTF-8"?>

<!-- generated on 2025-11-30 00:24:30.489363 by Eclipse SUMO randomTrips.py UNKNOWN
<configuration>
    <net-file value="/app/scenarios/simulacao.net.xml"/>
    <route-file value="/app/scenarios/simulacao.rou.xml"/>
    <end value="1000.0"/>
    <period value="5.0"/>
</configuration>
-->

<!-- generated on 2025-11-30T00:24:30.283147+00:00 by Eclipse SUMO duarouter 1.25.0
<duarouterConfiguration xmlns:xsi="http://www.w3.org/2001/XMLSchema-instance" xsi:noNamespaceSchemaLocation="http://sumo.dlr.de/xsd/duarouterConfiguration.xsd">

    <input>
        <net-file value="/app/scenarios/simulacao.net.xml"/>
        <route-files value="trips.trips.xml"/>
    </input>

    <output>
        <output-file value="/app/scenarios/simulacao.rou.xml"/>
        <alternatives-output value="NUL"/>
    </output>

    <time>
        <begin value="0"/>
        <end value="1000.0"/>
    </time>

    <report>
        <no-warnings value="true"/>
        <ignore-errors value="true"/>
        <no-step-log value="true"/>
    </report>

</duarouterConfiguration>
-->

<routes xmlns:xsi="http://www.w3.org/2001/XMLSchema-instance" xsi:noNamespaceSchemaLocation="http://sumo.dlr.de/xsd/routes_file.xsd">
    <vehicle id="0" depart="0.00">
        <route edges="251900318#0 251900318#1 -251900318#1 -251900318#0 251900359#1 -251900354 -251900317#3 -1302945093#1 -1302945093#0 1279122816 -251663341 251663272 251663281#3 251663345 251663280#2 251663280#3 1302278075 -251663353#1 -251663353#0 251663309 38002154#2 38002154#3 765222323#0 161133663#0 161133663#1 -1426668795#1 -1426668795#0 -161133656 -1445460939 1426668790 161133265#0 161133265#1 161133265#2 474417288#0 474417288#1 474417278#0 474417278#1 474417278#2 474417278#3 474417278#4 474417278#5 -173206799 -173206876#0 345994949 -408603450#0 173206753 -173206753"/>
    </vehicle>
    <vehicle id="1" depart="5.00">
        <route edges="-801722038#8 -801722038#7 801722038#7 801722038#8 161133265#0 161133265#1 161133265#2 1426668793#0 1426668793#1 1426668793#4 1426668793#5 1426668793#7 404985936 720863733#0 720863733#1 478507562#0 478507562#1 478507562#2 1426668788#0 1426668788#1 404981173 461600833#0 461600833#1 461600833#2 461600833#3 461600833#4 461600833#5 1445460939 161133656 1426668795#0 1426668795#1 161133662#0 161133662#1 765222320 765222322 765222321 38002154#0 251663325 251663353#0 251663353#1 251663281#0 251663281#1 868630752 251663341 -1279122816 1305307433#1 1302945093#1 251900317#3 251900317#4 926333540 -460207366#3 -460207366#2 -460207366#1 -460207366#0"/>
    </vehicle>
    <vehicle id="2" depart="10.00">
        <route edges="441528255 134667406#10 134667406#11 134667406#12 134667406#13 134667406#14 134667406#15 134667406#16 134667406#17 134667406#18 134667406#19 134667406#20 134667406#21 134667406#22 134667406#23 134667406#24 134667406#25 134667406#26 134667406#27 134667406#28 441528264 51058024#10 51058024#11 173206849 312743138#2 312743138#3 173206829#0 312743140#0 312743140#1 312743140#2 312743140#3"/>
    </vehicle>
    <vehicle id="3" depart="15.00">
        <route edges="51058024#24 51058024#25 441528255 134667406#10 134667406#11 134667406#12 134667406#13 134667406#14 134667406#15 134667406#16 134667406#17 134667406#18 134667406#19 134667406#20 134667406#21 134667406#22 134667406#23 134667406#24 134667406#25 134667406#26 134667406#27 134667406#28 134667406#29 134667406#30 134667406#31 134667406#32 134667406#33 134667406#34 134667406#35 134667406#36 134667406#37 134667406#38 134667406#39 441523066 136457418#0 136457418#1 136457418#2 161133242#0 161133242#1 720863732 161133256#0 161133256#1 161133256#2 478507562#0 257805847 15062178#2 649233806 -248878625 34436997#0 34436997#1 34436997#2 34436997#3 34436997#4 34436997#5 34436997#6 34436997#7 34436997#8 250748219#0 250748219#1 250748219#2 250748219#3 250748219#4 250748223#0 250748223#1 250748223#2 -250748223#2"/>
    </vehicle>
    <vehicle id="4" depart="20.00">
        <route edges="-460204731#1 -460204731#0 251663343 251663277 478497226#0 478497226#1 478497226#2 478497226#3 478497226#4 478497226#5 38002154#0 38002154#1 38002154#2 38002154#3 765222323#0 161133663#0 161133663#1 -1426668795#1 -1426668795#0 -161133656 -1445460939 1426668790 161133265#0 161133265#1 161133265#2 1426668793#0 1426668793#1 1426668793#4 1426668793#5 1426668793#7 404985936 720863733#0 1426668786 161133255 161133283#0 161133283#1 161133283#2 474417274#0 474417274#1 474417264#0 474417264#1 136457418#0 136457418#1 136457418#2 136457418#3 136457418#4 942287187#0 942287187#1 478510630 -474417272#1 -474417272#0 173206759#0 173206759#1 173206776#3 173206776#4 173206776#5 173206776#6 173206776#1 173206883#0 173206883#1"/>
    </vehicle>
    <vehicle id="5" depart="25.00">
        <route edges="-173206761#1 173206803#0 173206803#1 474417284#0 474417284#1 173206862#0 -173206809 801722038#2 801722038#3 801722038#4 801722038#5 801722038#6 801722038#7 801722038#8 161133265#0 161133265#1 161133265#2 1426668793#0 1426668793#1 1426668793#4 1426668793#5 1426668793#7 404985936 720863733#0 720863733#1 478507562#0 257805847 15062178#2 649233806 -248878625 250748244#0 250748244#1 250748244#2 250748244#3 250748244#4 -250823074#1 -408621403#3"/>
    </vehicle>
    <vehicle id="6" depart="30.00">
        <route edges="251900374#1 -251900374#1 -251900374#0 251900317#2 -1302945093#1 -1302945093#0 1279122816 -251663341 251663272 251663281#3 251663345 251663280#2 251663280#3 1302278075 -251663353#1 -251663353#0 251663309 38002154#2 38002154#3 765222323#0 161133663#0 161133663#1 161133662#0 -472644240 -474422093#2 -474422093#1 -474422093#0 250748220#0 250748220#1"/>
    </vehicle>
    <vehicle id="7" depart="35.00">
        <route edges="474417278#5 1442295203#0 1442295203#1 1426668793#7 404985936 720863733#0 720863733#1 478507562#0 478507562#1 478507562#2 1426668788#0 1426668788#1 404981173 461600833#0 461600833#1 461600833#2 461600833#3 461600833#4 461600833#5 1426668790 -801722038#8 -801722038#7 -801722038#6 -801722038#5 -801722038#4 -801722038#3 -801722038#2 -801722038#1 -801722038#0 -136457055"/>
    </vehicle>
    <vehicle id="8" depart="40.00">
        <route edges="474417277 868972792#1 161133237#0 161133237#1 161133237#2 161133256#1 161133256#2 478507562#0 478507562#1 161133259 1426668786 161133255 474417266#0 474417266#1 161133664 720863730 164242563 164242567#0 164242567#1 164242567#2 164242566#0 164242566#1 1137988085 355829979#0 355829979#1 355829973#0 355829973#1 355829973#2 355829973#3 355829973#4 355829973#5"/>
    </vehicle>
    <vehicle id="9" depart="45.00">
        <route edges="134667406#2 134667406#3 134667406#4 134667406#5 134667406#6 134667406#7 134667406#8 134667406#9 134667406#10 134667406#11 134667406#12 134667406#13 134667406#14 134667406#15 134667406#16 134667406#17 134667406#18 134667406#19 134667406#20 134667406#21 134667406#22 134667406#23 134667406#24 134667406#25 134667406#26 134667406#27 134667406#28 134667406#29 134667406#30 134667406#31 134667406#32 134667406#33 134667406#34 134667406#35 134667406#36 134667406#37 134667406#38 134667406#39 441523066 136457418#0 136457418#1 136457418#2 161133242#0 161133242#1 720863732 161133256#0 161133256#1 161133256#2 478507562#0 478507562#1 478507562#2 1426668788#0 1426668788#1 404981173 461600833#0 461600833#1 461600833#2 461600833#3 461600833#4 461600833#5 1445460939 161133656 1426668795#0 1426668795#1 161133662#0 161133662#1 765222320 765222322 765222321 38002154#0 251663325 251663353#0 251663353#1 251663281#0 251663281#1 868630752 251663341 -1279122816 1305307433#1 1302945093#1 251900317#3 251900317#4 926333540 -460207366#3 -460207366#2 -460207366#1 -251900337#1 -251900337#0"/>
    </vehicle>
    <vehicle id="10" depart="50.00">
        <route edges="868967620 -445106068 445106082 445106080#2 355829978#22 355829978#23 720863730 164242563 164242567#0 164242567#1 164242567#2 164242567#3 134658987#6 134658993#1 134658993#2 134658993#3 134658993#4 134658993#5"/>
    </vehicle>
    <vehicle id="11" depart="55.00">
        <route edges="-250748236#1 -250748236#0 -250748248#1 -250748248#0 250748191#2 250748200#0 250748200#1 250748200#2 408621394#0 408621394#1 408621394#2 -250748240#1"/>
    </vehicle>
    <vehicle id="12" depart="60.00">
        <route edges="474422938#1 474422938#2 -34436997#12 -34436997#11 -34436997#10 -34436997#9 -34436997#8 -34436997#7 -34436997#6 250823077#0 250823077#1 250823077#2"/>
    </vehicle>
    <vehicle id="13" depart="65.00">
        <route edges="474417278#1 474417278#2 474417278#3 1442295202#0 1442295202#1 1442295203#1 1426668793#7 404985936 720863733#0 720863733#1 478507562#0 257805847 15062178#2 15062178#3 15062178#4 1303798298#0 1303798298#1 -250748222#1 -250748222#0 408621400#0 408621400#1 408621400#2 408621400#3"/>
    </vehicle>
    <vehicle id="14" depart="70.00">
        <route edges="250748219#0 -250748219#0 -34436997#8 -34436997#7 -34436997#6 -34436997#5 -34436997#4 -34436997#3 -34436997#2 -34436997#1 -34436997#0 248878625 649233803 15062178#4 15062178#5 15062178#6 15062178#7 15062178#8 15062178#0 15062147 1445460940#2 1445460940#3 1426668788#1 404981173 461600833#0 461600833#1 461600833#2 1442295204 1426668793#4 1426668793#5 1426668793#7 404985936 720863733#0 1426668786 161133255 161133283#0 161133283#1 161133283#2 474417274#0 474417274#1 474417264#0 474417264#1 136457418#0 136457418#1 136457418#2 136457418#3 136457418#4 942287187#0 942287187#1 942287187#2 929869519#0 929869519#1 929869519#2 942287185 942287186#0 942287186#1 942287186#2 942287186#3 942287186#4 929869517#0 929869517#1 929869516#1"/>
    </vehicle>
    <vehicle id="15" depart="75.00">
        <route edges="1442295202#1 1442295203#1 1426668793#7 404985936 720863733#0 720863733#1 478507562#0 257805847 15062178#2 15062178#3 15062178#4 15062178#5 15062178#6 250748227"/>
    </vehicle>
    <vehicle id="16" depart="80.00">
        <route edges="474419318 -173206866#7 -173206866#6 -173206866#5 -173206866#4 -173206866#3 -173206866#2 -173206866#1 -173206866#0 942367141#1 929869518#1 136457414#5 136457414#6 136457414#7 136457414#8 136457414#1 161133279 -161133244#7 -161133244#6 -161133244#5 -161133244#4 -161133244#3 -161133244#2 -161133244#1 -161133244#0 868972792#0 868972792#1 161133237#0 161133237#1 161133237#2 161133256#1 161133256#2 478507562#0 478507562#1 478507562#2 1426668788#0 1426668788#1 404981173 461600833#0 461600833#1 461600833#2 461600833#3 461600833#4 461600833#5 1445460939 161133656 1426668795#0 1426668795#1 161133662#0 161133662#1 765222320 765222322 1222101435 1222101434#0 1222101434#1 1222101433#0 478502392#0 478502392#1 478502392#2 478502392#3 478502393 250748201#0 250748201#1 477798906 251663313 1022622261 251663286#0"/>
    </vehicle>
    <vehicle id="17" depart="85.00">
        <route edges="478497232#0 478497232#1 -251663323#2 -251663323#1 -251663323#0 -251663296#1 477798905 251663315 478497226#4 478497226#5 38002154#0 38002154#1 38002154#2 38002154#3 765222323#0 161133663#0 161133663#1 161133662#0 -472644240 -474422093#2 -474422093#1 -474422093#0 250748220#0 250748220#1 -250748252#7 -250748252#6 -250748252#5 -250748252#4 -250748252#3 -250748243#1 -250748191#3 -250748191#2 250748248#0 250748248#1 250748248#2"/>
    </vehicle>
    <vehicle id="18" depart="90.00">
        <route edges="355829978#8 355829978#9 355829978#10 355829978#11 355829978#12 355829978#13 355829978#14 355829978#15 355829978#16 355829978#17 355829978#18 355829978#19 355829978#20 355829978#21 355829978#22 161133659 868510986 161133657 474417274#0 474417274#1 474417274#2 51058024#0 51058024#1 51058024#2 51058024#3 51058024#4 51058024#5 51058024#6 51058024#7 51058024#8 51058024#9 51058024#10 51058024#11 173206849 312743138#2 312743138#3 312743138#4 312743138#5 -173206862#1"/>
    </vehicle>
    <vehicle id="19" depart="95.00">
        <route edges="-472644239#3 -472644239#2 -472644239#1 -472644239#0 472644239#0 472644239#1 472644239#2 472644239#3 472644239#4 472644239#5 472644239#6 472644239#7 472644239#8 637034132 251663337#0 251663337#1 251663337#2 251663317 251663293 -868227618 477798907 635853028#0 477798914 -971537102#2 -971537102#1 -971537102#0"/>
    </vehicle>
    <vehicle id="20" depart="100.00">
        <route edges="-250748219#4 -250748219#3 -250748219#2 -250748219#1 -250748219#0 -34436997#8 -34436997#7 -34436997#6 -34436997#5 -34436997#4 -34436997#3 -34436997#2 -34436997#1 -34436997#0 248878625 649233803 15062178#4 15062178#5 15062178#6 15062178#7 15062178#8 15062178#0 15062147 1445460940#2 1445460940#3 1426668788#1 404981173 461600833#0 461600833#1 461600833#2 1442295204 1426668793#4 1426668793#5 1426668793#7 404985936 720863733#0 1426668786 161133255 161133283#0 161133283#1 161133283#2 474417274#0 474417274#1 474417264#0 474417264#1 136457418#0 136457418#1 136457418#2 136457418#3 136457418#4 942287187#0 942287187#1 478510630 -474417272#1 -474417272#0 474417271#0 474417271#1 -474417271#1"/>
    </vehicle>
    <vehicle id="21" depart="105.00">
        <route edges="-250748244#3 -250748244#2 -250748244#1 868533409 34436997#1 34436997#2 34436997#3 34436997#4 34436997#5 34436997#6 34436997#7 34436997#8 250748219#0 250748219#1 250748219#2 250748219#3 250748219#4 250748219#5 250748219#6 250748219#7 926333538 250748188#0 250748188#1 250748188#2 250748188#3 250748188#4 250748188#5 971537102#0 971537102#1 971537102#2 250748246 250748201#1 477798906 -868227618"/>
    </vehicle>
    <vehicle id="22" depart="110.00">
        <route edges="251870629#2 251870629#3 460207366#0 460207366#1 460207366#2 460207366#3 -926333540 -251900317#4 -251900317#3 -1302945093#1 -1302945093#0 1279122816 -251663341 251663272 251663281#3 251663345 251663280#2 251663280#3 1302278075 -251663353#1 -251663353#0 251663309 38002154#2 38002154#3 765222323#0 161133663#0 161133663#1 -1426668795#1 -1426668795#0 -161133656 -1445460939 1426668790 -801722038#8 -801722038#7 -801722038#6 -801722038#5 -801722038#4 -801722038#3 -801722038#2 -801722038#1 -801722038#0 -136457055 474421607#0 474421607#1 173206761#0 173206761#1 1303789114 51058024#24 51058024#25 51058024#26 51058024#27 51058024#28 51058024#29 51058024#30 51058024#31 51058024#32 51058024#33 51058024#34 51058024#35 51058024#36 51058024#37 868532929 136456413#0 136456413#1 136456413#2 136456413#3"/>
    </vehicle>
    <vehicle id="23" depart="115.00">
        <route edges="1426668785 1445460940#3 1426668788#1 404981173 461600833#0 461600833#1 461600833#2 1442295204 1426668793#4 1426668793#5 1426668793#7 404985936 720863733#0 1426668786 161133255 474417266#0 474417266#1 161133661 164242575#1 478522434#0 478522434#1 478509062#0 478509062#1 478509062#2 478509062#3 868960422 868960421 355829978#10 445107676#0 445107676#1 868960419 -445107680#4 -445107685 -445107679#2"/>
    </vehicle>
    <vehicle id="24" depart="120.00">
        <route edges="-749304918#1 -749304918#0 477798929 34436998#8 248878629 -34436997#12 -34436997#11 -34436997#10 -34436997#9 -34436997#8 -34436997#7 -34436997#6 -34436997#5 -34436997#4 -34436997#3 -34436997#2 -34436997#1 -34436997#0 248878625 649233803 15062178#4 15062178#5 15062178#6 15062178#7 15062178#8 15062178#0 15062147 1445460940#2 1445460940#3 1426668788#1 404981173 461600833#0 461600833#1 461600833#2 461600833#3 461600833#4 461600833#5 1426668790 -801722038#8 -801722038#7 -801722038#6 -801722038#5 -801722038#4 -173206792 408603451#3 474417282#0 474417282#1 474417283#2 801722037#0"/>
    </vehicle>
    <vehicle id="25" depart="125.00">
        <route edges="251900363#1 251900392#2 251900394#0 251900394#1 -251900317#4 -251900317#3 -1302945093#1 -1302945093#0 1279122816 -251663341 251663272 251663281#3 251663345 251663280#2 251663280#3 1302278075 -251663353#1 -460204729#1 -460204729#0 -251663267#4 -251663267#3 251663279 966794882#1 251663267#2"/>
    </vehicle>
    <vehicle id="26" depart="130.00">
        <route edges="-312743138#0 136457056 134667403 134667406#31 134667406#32 134667406#33 134667406#34 134667406#35 134667406#36 134667406#37 134667406#38 134667406#39 441523066 136457418#0 136457418#1 136457418#2 161133242#0 161133242#1 720863732 161133256#0 161133256#1 161133256#2 478507562#0 257805847 15062178#2 15062178#3 15062178#4 1303798298#0 1303798298#1 -250748222#1 -250748222#0 408621400#0 408621400#1 408621400#2"/>
    </vehicle>
    <vehicle id="27" depart="135.00">
        <route edges="-251900374#1 -251900374#0 251900317#2 -1302945093#1 -1302945093#0 1279122816 -251663341 251663272 251663281#3 251663345 251663280#2 251663280#3 1302278075 -251663353#1 -251663353#0 251663309 38002154#2 38002154#3 765222323#0 161133663#0 161133663#1 -1426668795#1 -1426668795#0 -161133656 -1445460939 1426668790"/>
    </vehicle>
    <vehicle id="28" depart="140.00">
        <route edges="942287186#3 942287186#4 929869517#0 929869517#1 929869516#1 929869516#2 942367141#1 929869518#1 136457414#5 136457414#6 136457414#7 136457414#8 136457414#1 161133279 -161133244#7 -161133244#6 -161133244#5 -161133244#4 -161133244#3 -161133244#2 -161133244#1 -161133244#0 868972792#0 868972792#1 161133237#0 161133237#1 161133237#2 161133256#1 161133256#2 478507562#0 478507562#1 478507562#2 1426668788#0 1426668788#1 404981173 461600833#0 461600833#1 461600833#2 461600833#3 461600833#4 461600833#5 1445460939 161133656 1426668795#0 1426668795#1 161133662#0 161133662#1 765222320 765222322 765222321 38002154#0 251663325 251663353#0 251663353#1 251663281#0 251663281#1 868630752 251663341 -1279122816 1305307433#1 1302945093#1 -251900317#2 -251900317#1 -251900376#1 -251900376#0 251870629#1"/>
    </vehicle>
    <vehicle id="29" depart="145.00">
        <route edges="250748238#2 -250748238#2 -250748238#1 -250748238#0 869119873 250748220#1 681765541#0 681765541#1 681765541#2 681765541#3 250748228 15062178#8 15062178#0 15062178#1 15062178#2 649233806 -248878625 34436997#0 34436997#1 34436997#2 34436997#3 34436997#4 34436997#5 34436997#6 34436997#7 34436997#8"/>
    </vehicle>
    <vehicle id="30" depart="150.00">
        <route edges="474422607#1 -250748252#3 -250748252#2 -250748252#1 -250748252#0 250748188#1 250748188#2 250748188#3 250748188#4 250748188#5 971537102#0 971537102#1 971537102#2 250748246 250748201#1 477798906 251663313 931194681#0 931194681#1 251663296#0 251663296#1 251663296#2 251663296#3 251663296#4 251663296#5 478502388 460204728#1"/>
    </vehicle>
    <vehicle id="31" depart="155.00">
        <route edges="-472644239#5 -472644239#4 -472644239#3 -472644239#2 -472644239#1 -472644239#0 472644239#0 472644239#1 472644239#2 472644239#3 472644239#4 472644239#5 472644239#6 472644239#7 472644239#8 637034132 251663337#0 251663337#1 251663337#2 251663317 478497226#3 478497226#4 478497226#5 38002154#0 38002154#1 38002154#2 38002154#3 765222323#0 161133663#0 161133663#1 -1426668795#1 -1426668795#0 -161133656 -1445460939 1426668790 161133265#0 161133265#1 161133265#2 474417288#0 474417288#1 474417288#2 -474417292#5 -474417292#4 -474417292#3 -474417292#2 -474417292#1 -474417292#0 -173206860#1 -173206860#0 -173206859#1 -173206804"/>
    </vehicle>
    <vehicle id="32" depart="160.00">
        <route edges="-445107679#2 445107683 445107680#2 445107680#3 445107680#4 445107677#0 445107677#1 478509062#2 478509062#3 478509062#4 478509062#5 478509062#6 478509062#7 478509062#8 478509062#9 478509062#10 355829972#0 355829972#1 824684955"/>
    </vehicle>
    <vehicle id="33" depart="165.00">
        <route edges="577871856 238948416#2 136457414#1 136457414#2 136457414#3 238948418 1246124041 1246124038#0 1246124038#1 1246124038#2 1246124038#3 1246124038#4 1246124038#5 1246124038#6 1246124038#7 1246124038#8 1246124038#9 1246124038#10 1246124038#11 1246124038#12 1246124038#13 1246124038#14 238948417 868519514 -173206753 408603450#0 408603450#1 173206764 173206846#1 173206800"/>
    </vehicle>
    <vehicle id="34" depart="170.00">
        <route edges="-640326640 460204731#0 460204731#1 460204731#2 460204731#3 472644239#6 472644239#7 472644239#8 637034132 251663337#0 251663337#1 251663337#2 251663317 251663293 -868227618 477798907 635853028#0 477798914 -971537102#2 250748250#0 250748250#1 250748250#2 250748250#3 -250748249#5 -250748249#4 -250748249#3 -250748249#2 474422240#1 474422240#2 681765541#2 681765541#3 -474422091#0"/>
    </vehicle>
    <vehicle id="35" depart="175.00">
        <route edges="250748243#0 250748191#4 474422240#0 -250748249#1 -250748249#0 250748222#1 1303798299#0 1303798299#1 15062178#6 15062178#7 15062178#8 15062178#0 15062147 1445460940#2 1445460940#3 1426668788#1 404981173 461600833#0 461600833#1 461600833#2 1442295204 1426668793#4 1426668793#5 1426668793#7 404985936 720863733#0 1426668786 161133255 474417266#0 474417266#1 161133661 164242575#1 478522434#0 478522434#1 478509062#0 478509062#1 478509062#2 478509062#3 868960422 868960421 355829978#10 445107676#0 577829082#0 577829082#1 -577829082#1"/>
    </vehicle>
    <vehicle id="36" depart="180.00">
        <route edges="250748252#2 250748252#3 250748252#4 -250748249#2 -250748249#1 -250748249#0 250748222#1 1303798299#0 1303798299#1 15062178#6 15062178#7 15062178#8 15062178#0 15062147 1445460940#2 1445460940#3 1426668788#1 404981173 461600833#0 461600833#1 461600833#2 1442295204 1426668793#4 1426668793#5 1426668793#7 404985936 720863733#0 1426668786 161133255 161133283#0 161133283#1 161133283#2 474417274#0 474417274#1 474417274#2 51058024#0 51058024#1 51058024#2 51058024#3 51058024#4 51058024#5 51058024#6 51058024#7 51058024#8 51058024#9 51058024#10 51058024#11 51058024#12 51058024#13 51058024#14 51058024#15 51058024#16 51058024#17 51058024#18 51058024#19 51058024#20 51058024#21 51058024#22 51058024#23 51058024#24 51058024#25 51058024#26 51058024#27"/>
    </vehicle>
    <vehicle id="37" depart="185.00">
        <route edges="161133244#3 -161133244#3 -161133244#2 -161133244#1 -161133244#0 868972792#0 868972792#1 161133237#0 161133237#1 161133237#2 161133256#1 161133256#2 478507562#0 478507562#1 478507562#2 1426668788#0 1426668788#1 404981173 461600833#0 461600833#1 461600833#2 461600833#3 461600833#4 461600833#5 1445460939 161133656 1426668795#0 1426668795#1 161133662#0 161133662#1 765222320 765222322 1222101435 1222101434#0 1222101434#1 1222101433#0 478502392#0 478502392#1 478502392#2 478502392#3 478502393 250748201#0 250748201#1 477798906 251663267#0 251663267#1 966794882#2 966794882#3 -637034132 -472644239#8 -472644239#7 -472644239#6 -460204731#3"/>
    </vehicle>
    <vehicle id="38" depart="190.00">
        <route edges="968247687 -968247687 442258792#0 442258792#1 474417274#1 474417274#2 51058024#0 51058024#1 51058024#2 51058024#3 51058024#4 51058024#5 51058024#6 51058024#7 51058024#8 51058024#9 51058024#10 51058024#11 51058024#12 51058024#13 51058024#14 51058024#15 51058024#16 51058024#17 51058024#18 51058024#19 51058024#20 51058024#21 51058024#22 51058024#23 51058024#24 51058024#25 51058024#26 51058024#27 51058024#28 51058024#29 51058024#30 51058024#31 51058024#32 51058024#33 51058024#34 51058024#35 51058024#36 51058024#37 868532929 136456413#0 136456413#1 -173208018#3 -173208018#2 -173208018#1 173208052#0"/>
    </vehicle>
    <vehicle id="39" depart="195.00">
        <route edges="-250748235#3 -250748235#2 -250748223#0 -250748219#4 -250748219#3 -250748219#2 -250748219#1 -250748219#0 -34436997#8 -34436997#7 -34436997#6 -34436997#5 -34436997#4 -34436997#3 -34436997#2 -34436997#1 -34436997#0 248878625 649233803 15062178#4 15062178#5 15062178#6 15062178#7 15062178#8 15062178#0 15062147 1445460940#2 1445460940#3 1426668788#1 404981173 461600833#0 461600833#1 461600833#2 1442295204 1426668793#4 1426668793#5 1426668793#7 404985936 720863733#0 1426668786 161133255 161133283#0 161133283#1 161133283#2 474417274#0 474417274#1 474417264#0 474417264#1 136457418#0 136457418#1 136457418#2 136457418#3 136457418#4 942287187#0 942287187#1 478510630 -474417272#1 -474417272#0 173206759#0 173206759#1 173206776#3 868979461 474417269 -173206864#2"/>
    </vehicle>
    <vehicle id="40" depart="200.00">
        <route edges="-250748248#5 -408621397#0 250748219#3 250748219#4 250748219#5 250748219#6 250748219#7 926333538 250748188#0 250748188#1 250748188#2 250748188#3 250748188#4 250748188#5 971537102#0 971537102#1 971537102#2 250748246 250748201#1 477798906 251663267#0 251663267#1 251663267#2 251663267#3 251663267#4 460204729#0 251663347#0 251663307"/>
    </vehicle>
    <vehicle id="41" depart="205.00">
        <route edges="472644239#8 637034132 251663337#0 251663337#1 251663337#2 251663317 478497226#3 478497226#4 478497226#5 38002154#0 38002154#1 38002154#2 38002154#3 765222323#0 161133663#0 161133663#1 -1426668795#1 -1426668795#0 -161133656 -1445460939 1426668790 161133265#0 161133265#1 161133265#2 1426668793#0 1426668793#1 1426668793#4 1426668793#5 1426668793#7 404985936 720863733#0 1426668786 161133255 474417266#0 474417266#1 161133664"/>
    </vehicle>
    <vehicle id="42" depart="210.00">
        <route edges="966794882#2 -251663321 251663337#1 251663337#2 251663317 251663293 -868227618 477798907 635853028#0 635853028#1 635853028#2 477798916 -250748188#5 -250748188#4 -250748188#3 -250748188#2 -250748188#1 -250748188#0 250748234#0 250748191#0"/>
    </vehicle>
    <vehicle id="43" depart="215.00">
        <route edges="-1426668795#1 -1426668795#0 -161133656 -1445460939 1445460939 161133656 1426668795#0 1426668795#1 161133662#0 -472644240 -474422093#2 -408621394#4 -408621394#3 -408621394#2 -408621394#1 -408621394#0 408621394#0"/>
    </vehicle>
    <vehicle id="44" depart="220.00">
        <route edges="34436998#4 34436998#5 34436998#6 34436998#7 34436998#8 248878629 -34436997#12 -34436997#11 -34436997#10 -34436997#9 250748219#0 250748219#1 250748219#2 250748219#3 250748219#4 250748219#5 250748219#6 250748219#7 926333538 250748188#0 250748188#1 250748188#2 250748188#3 250748188#4 250748188#5 971537102#0 971537102#1 971537102#2 250748246 250748201#1 477798907 250748204"/>
    </vehicle>
    <vehicle id="45" depart="225.00">
        <route edges="-749304918#1 -749304918#0 477798929 34436998#8 248878629 -34436997#12 -34436997#11 -34436997#10 -34436997#9 -34436997#8 -34436997#7 -34436997#6 -34436997#5 -34436997#4 -34436997#3 -34436997#2 -34436997#1 -34436997#0 248878625 649233803 15062178#4 15062178#5 15062178#6 15062178#7 15062178#8 15062178#0 15062147 1445460940#2 1445460940#3 1426668788#1 404981173 461600833#0 461600833#1 461600833#2 461600833#3 461600833#4 461600833#5 1445460939 161133656 1426668795#0 1426668795#1 161133662#0 161133662#1 765222320 765222322 765222321 38002154#0 251663325 251663353#0 251663353#1 251663281#0 251663281#1 868630752 251663341 -1279122816 1305307433#1 1302945093#1 -251900317#2 -251900317#1 -251900376#1 -251900376#0 251870629#1 251870629#2"/>
    </vehicle>
    <vehicle id="46" depart="230.00">
        <route edges="173206803#0 173206879#2 173206879#3 51058024#20 51058024#21 51058024#22 51058024#23 51058024#24 51058024#25 441528255 134667406#10 134667406#11 134667406#12 134667406#13 134667406#14 134667406#15 134667406#16 134667406#17 134667406#18 134667406#19 134667406#20 134667406#21 134667406#22 134667406#23 134667406#24 134667406#25 134667406#26 134667406#27 134667406#28 134667406#29 134667406#30 134667406#31 134667406#32 134667406#33 134667406#34 134667406#35 134667406#36 134667406#37 134667406#38 134667406#39 441523066 136457418#0 474417263#0 474417263#1 474417266#1 161133661 164242575#1 478522434#0 478522434#1 478509062#0 478509062#1 478509062#2 478509062#3 868960422 868960421 355829978#10 355829978#11 355829978#12 355829978#13 355829978#14 355829978#15 355829978#16 355829978#17 355829978#18 355829978#19 355829978#20 445106067#0 445106068 868967618 868967619 868952165"/>
    </vehicle>
    <vehicle id="47" depart="235.00">
        <route edges="173206880 -968247687 442258792#0 442258792#1 474417274#1 474417264#0 474417264#1 136457418#0 136457418#1 136457418#2 161133242#0 161133242#1 720863732 161133256#0 161133256#1 161133256#2 478507562#0 257805847 15062178#2 649233806 -248878625 34436997#0 34436997#1 -34436997#1"/>
    </vehicle>
    <vehicle id="48" depart="240.00">
        <route edges="577871852#2 136457414#7 136457414#8 136457414#1 161133279 -161133244#7 -161133244#6 -161133244#5 -161133244#4 -161133244#3 -161133244#2 -161133244#1 -161133244#0 868972792#0 868972792#1 161133237#0 161133237#1 161133237#2 161133256#1 161133256#2 478507562#0 478507562#1 478507562#2 1426668788#0 1426668788#1 404981173 461600833#0 461600833#1 461600833#2 461600833#3 461600833#4 461600833#5 1445460939 161133656 1426668795#0 1426668795#1 161133662#0 161133662#1 765222320 765222322 1222101435 1222101434#0 1222101434#1 1222101433#0 478502392#0 478502392#1 478502392#2 478502392#3"/>
    </vehicle>
    <vehicle id="49" depart="245.00">
        <route edges="251663280#0 251663280#1 251663280#2 251663311 868630752 251663341 -1279122816 1305307433#1 1302945093#1 -251900317#2"/>
    </vehicle>
    <vehicle id="50" depart="250.00">
        <route edges="445107677#0 355829978#14 355829978#15 355829978#16 355829978#17 355829978#18 355829978#19 355829978#20 355829978#21 355829978#22 161133659 868510986 161133270 161133256#0 161133256#1 161133256#2 478507562#0 257805847 15062178#2 649233806 -248878625 34436997#0 34436997#1 34436997#2 34436997#3 34436997#4 34436997#5 34436997#6 34436997#7 34436997#8 250748219#0 250748219#1 250748219#2 250748219#3 250748219#4 250748219#5 250748215"/>
    </vehicle>
    <vehicle id="51" depart="255.00">
        <route edges="460207353#1 -460207353#1 -460207353#0 -251900317#4 -251900317#3 -1302945093#1 -1302945093#0 1279122816 -251663341 251663272 251663281#3 251663345 251663280#2 251663280#3 1302278075 -251663353#1 -251663353#0 251663309 38002154#2 38002154#3 765222323#0 161133663#0 161133663#1 161133662#0 -472644240 -474422093#2 -474422093#1 -474422093#0 250748220#0 250748220#1 -250748252#7 -250748252#6 -250748252#5 -250748252#4 -250748252#3 -250748252#2 -250748252#1 -408621402 250748191#1 250748191#2"/>
    </vehicle>
    <vehicle id="52" depart="260.00">