<?xml version="1.0" encoding="UTF-8"?>

<!-- generated on 2025-11-29 23:02:02.197067 by Eclipse SUMO randomTrips.py UNKNOWN
<configuration>
    <net-file value="/app/scenarios/simulacao.net.xml"/>
    <route-file value="/app/scenarios/simulacao.rou.xml"/>
    <end value="1000.0"/>
    <period value="5.0"/>
</configuration>
-->

<!-- generated on 2025-11-29T23:02:01.982075+00:00 by Eclipse SUMO duarouter 1.25.0
<duarouterConfiguration xmlns:xsi="http://www.w3.org/2001/XMLSchema-instance" xsi:noNamespaceSchemaLocation="http://sumo.dlr.de/xsd/duarouterConfiguration.xsd">

    <input>
        <net-file value="/app/scenarios/simulacao.net.xml"/>
        <route-files value="trips.trips.xml"/>
    </input>

    <output>
        <output-file value="/app/scenarios/simulacao.rou.xml"/>
        <alternatives-output value="NUL"/>
    </output>

    <time>
        <begin value="0"/>
        <end value="1000.0"/>
    </time>

    <report>
        <no-warnings value="true"/>
        <ignore-errors value="true"/>
        <no-step-log value="true"/>
    </report>

</duarouterConfiguration>
-->

<routes xmlns:xsi="http://www.w3.org/2001/XMLSchema-instance" xsi:noNamespaceSchemaLocation="http://sumo.dlr.de/xsd/routes_file.xsd">
</routes>
